  
       XFOIL         Version 6.99
  
 Calculated polar for: NACA 2412                                       
  
 1 1 Reynolds number fixed          Mach number fixed         
  
 xtrf =   1.000 (top)        1.000 (bottom)  
 Mach =   0.000     Re =    10.000 e 6     Ncrit =   9.000
  
   alpha    CL        CD       CDp       CM     Top_Xtr  Bot_Xtr
  ------ -------- --------- --------- -------- -------- --------
 -10.000  -0.8877   0.00777   0.00376  -0.0510   0.9230   0.0192
  -9.900  -0.8768   0.00769   0.00368  -0.0509   0.9194   0.0197
  -9.800  -0.8657   0.00761   0.00361  -0.0509   0.9179   0.0201
  -9.700  -0.8547   0.00755   0.00355  -0.0509   0.9154   0.0204
  -9.600  -0.8436   0.00748   0.00348  -0.0509   0.9121   0.0207
  -9.500  -0.8326   0.00743   0.00342  -0.0508   0.9078   0.0210
  -9.400  -0.8216   0.00739   0.00337  -0.0508   0.9026   0.0212
  -9.300  -0.8105   0.00734   0.00331  -0.0508   0.8979   0.0214
  -9.200  -0.7993   0.00729   0.00326  -0.0508   0.8957   0.0215
  -9.100  -0.7880   0.00725   0.00321  -0.0508   0.8923   0.0216
  -9.000  -0.7769   0.00721   0.00316  -0.0507   0.8878   0.0217
  -8.900  -0.7658   0.00717   0.00310  -0.0507   0.8822   0.0217
  -8.800  -0.7546   0.00713   0.00305  -0.0507   0.8767   0.0218
  -8.700  -0.7433   0.00709   0.00300  -0.0507   0.8744   0.0218
  -8.600  -0.7320   0.00705   0.00295  -0.0507   0.8705   0.0219
  -8.500  -0.7208   0.00701   0.00290  -0.0507   0.8651   0.0219
  -8.400  -0.7097   0.00698   0.00286  -0.0507   0.8587   0.0219
  -8.300  -0.6984   0.00694   0.00281  -0.0507   0.8546   0.0219
  -8.200  -0.6870   0.00690   0.00276  -0.0507   0.8514   0.0220
  -8.100  -0.6757   0.00687   0.00272  -0.0507   0.8466   0.0220
  -8.000  -0.6645   0.00685   0.00269  -0.0507   0.8406   0.0220
  -7.900  -0.6532   0.00682   0.00264  -0.0507   0.8341   0.0220
  -7.800  -0.6418   0.00678   0.00260  -0.0508   0.8313   0.0220
  -7.700  -0.6305   0.00674   0.00256  -0.0508   0.8271   0.0220
  -7.600  -0.6192   0.00672   0.00251  -0.0508   0.8211   0.0220
  -7.500  -0.6080   0.00669   0.00247  -0.0508   0.8145   0.0221
  -7.400  -0.5965   0.00665   0.00242  -0.0508   0.8110   0.0221
  -7.300  -0.5852   0.00661   0.00238  -0.0508   0.8076   0.0221
  -7.200  -0.5739   0.00657   0.00232  -0.0508   0.8023   0.0224
  -7.100  -0.5627   0.00654   0.00227  -0.0508   0.7958   0.0226
  -7.000  -0.5513   0.00650   0.00221  -0.0509   0.7902   0.0228
  -6.900  -0.5399   0.00645   0.00216  -0.0509   0.7872   0.0230
  -6.800  -0.5286   0.00641   0.00211  -0.0509   0.7826   0.0234
  -6.700  -0.5173   0.00638   0.00206  -0.0509   0.7770   0.0239
  -6.600  -0.5060   0.00634   0.00201  -0.0509   0.7698   0.0246
  -6.500  -0.4946   0.00629   0.00196  -0.0509   0.7670   0.0253
  -6.400  -0.4832   0.00625   0.00192  -0.0509   0.7631   0.0257
  -6.300  -0.4719   0.00622   0.00188  -0.0510   0.7573   0.0260
  -6.200  -0.4606   0.00619   0.00183  -0.0510   0.7501   0.0265
  -6.100  -0.4491   0.00615   0.00179  -0.0510   0.7458   0.0270
  -6.000  -0.4377   0.00611   0.00175  -0.0510   0.7424   0.0273
  -5.900  -0.4263   0.00609   0.00172  -0.0511   0.7374   0.0275
  -5.800  -0.4149   0.00607   0.00169  -0.0511   0.7310   0.0278
  -5.700  -0.4034   0.00605   0.00165  -0.0511   0.7250   0.0279
  -5.600  -0.3919   0.00602   0.00162  -0.0512   0.7221   0.0280
  -5.500  -0.3804   0.00600   0.00159  -0.0512   0.7176   0.0281
  -5.400  -0.3690   0.00599   0.00156  -0.0512   0.7112   0.0281
  -5.300  -0.3575   0.00598   0.00153  -0.0513   0.7038   0.0282
  -5.200  -0.3460   0.00595   0.00150  -0.0513   0.7011   0.0282
  -5.100  -0.3344   0.00593   0.00148  -0.0513   0.6968   0.0282
  -5.000  -0.3230   0.00592   0.00145  -0.0514   0.6907   0.0283
  -4.900  -0.3116   0.00590   0.00141  -0.0514   0.6838   0.0291
  -4.800  -0.3001   0.00587   0.00138  -0.0514   0.6801   0.0299
  -4.700  -0.2886   0.00584   0.00135  -0.0515   0.6759   0.0312
  -4.600  -0.2772   0.00582   0.00132  -0.0515   0.6690   0.0323
  -4.500  -0.2658   0.00580   0.00129  -0.0515   0.6633   0.0332
  -4.400  -0.2544   0.00577   0.00125  -0.0516   0.6576   0.0342
  -4.300  -0.2429   0.00574   0.00123  -0.0516   0.6524   0.0349
  -4.200  -0.2315   0.00573   0.00120  -0.0516   0.6447   0.0357
  -4.000  -0.2087   0.00567   0.00114  -0.0517   0.6336   0.0414
  -3.900  -0.1974   0.00564   0.00111  -0.0517   0.6270   0.0440
  -3.800  -0.1860   0.00563   0.00108  -0.0517   0.6174   0.0470
  -3.700  -0.1747   0.00557   0.00104  -0.0517   0.6126   0.0529
  -3.600  -0.1633   0.00554   0.00101  -0.0517   0.6058   0.0557
  -3.500  -0.1520   0.00555   0.00100  -0.0518   0.5954   0.0583
  -3.400  -0.1406   0.00551   0.00097  -0.0518   0.5911   0.0636
  -3.300  -0.1292   0.00547   0.00094  -0.0518   0.5846   0.0677
  -3.200  -0.1179   0.00548   0.00093  -0.0518   0.5745   0.0692
  -3.100  -0.1063   0.00547   0.00091  -0.0519   0.5702   0.0701
  -3.000  -0.0949   0.00546   0.00089  -0.0519   0.5634   0.0750
  -2.900  -0.0836   0.00545   0.00088  -0.0519   0.5550   0.0793
  -2.800  -0.0721   0.00541   0.00085  -0.0520   0.5500   0.0829
  -2.700  -0.0606   0.00540   0.00084  -0.0520   0.5451   0.0845
  -2.600  -0.0491   0.00541   0.00083  -0.0520   0.5379   0.0853
  -2.500  -0.0376   0.00542   0.00082  -0.0521   0.5294   0.0862
  -2.400  -0.0260   0.00541   0.00081  -0.0521   0.5259   0.0906
  -2.300  -0.0145   0.00540   0.00079  -0.0522   0.5209   0.0945
  -2.200  -0.0032   0.00539   0.00078  -0.0522   0.5135   0.0982
  -2.100   0.0083   0.00538   0.00077  -0.0523   0.5073   0.1011
  -2.000   0.0199   0.00536   0.00076  -0.0523   0.5042   0.1027
  -1.900   0.0315   0.00537   0.00075  -0.0524   0.4996   0.1035
  -1.800   0.0429   0.00538   0.00075  -0.0524   0.4934   0.1069
  -1.700   0.0544   0.00537   0.00074  -0.0524   0.4859   0.1122
  -1.600   0.0660   0.00535   0.00072  -0.0525   0.4832   0.1167
  -1.500   0.0774   0.00534   0.00072  -0.0525   0.4772   0.1211
  -1.400   0.0888   0.00535   0.00072  -0.0526   0.4694   0.1243
  -1.300   0.1003   0.00533   0.00070  -0.0526   0.4637   0.1339
  -1.200   0.1118   0.00530   0.00069  -0.0527   0.4605   0.1402
  -1.100   0.1232   0.00530   0.00069  -0.0527   0.4548   0.1440
  -1.000   0.1345   0.00527   0.00068  -0.0527   0.4492   0.1580
  -0.900   0.1460   0.00526   0.00068  -0.0528   0.4435   0.1631
  -0.800   0.1576   0.00523   0.00067  -0.0528   0.4417   0.1749
  -0.700   0.1691   0.00520   0.00066  -0.0529   0.4395   0.1827
  -0.600   0.1806   0.00518   0.00066  -0.0529   0.4361   0.1933
  -0.500   0.1920   0.00517   0.00065  -0.0530   0.4312   0.2019
  -0.400   0.2034   0.00518   0.00066  -0.0530   0.4232   0.2060
  -0.300   0.2148   0.00514   0.00065  -0.0531   0.4200   0.2226
  -0.200   0.2264   0.00512   0.00065  -0.0531   0.4175   0.2322
  -0.100   0.2378   0.00508   0.00065  -0.0532   0.4143   0.2458
   0.000   0.2493   0.00510   0.00065  -0.0532   0.4105   0.2488
   0.100   0.2608   0.00510   0.00066  -0.0533   0.4059   0.2576
   0.200   0.2723   0.00509   0.00066  -0.0533   0.4006   0.2643
   0.300   0.2839   0.00509   0.00066  -0.0534   0.3977   0.2686
   0.400   0.2955   0.00509   0.00067  -0.0534   0.3946   0.2712
   0.500   0.3067   0.00512   0.00068  -0.0534   0.3862   0.2794
   0.600   0.3181   0.00514   0.00069  -0.0535   0.3769   0.2862
   0.700   0.3296   0.00514   0.00069  -0.0535   0.3728   0.2904
   0.800   0.3408   0.00519   0.00071  -0.0535   0.3626   0.2954
   0.900   0.3521   0.00519   0.00072  -0.0536   0.3554   0.3060
   1.000   0.3635   0.00520   0.00073  -0.0536   0.3500   0.3134
   1.100   0.3746   0.00524   0.00075  -0.0536   0.3385   0.3225
   1.200   0.3860   0.00525   0.00076  -0.0536   0.3325   0.3308
   1.300   0.3969   0.00532   0.00079  -0.0536   0.3176   0.3355
   1.400   0.4085   0.00533   0.00080  -0.0536   0.3134   0.3430
   1.500   0.4198   0.00533   0.00081  -0.0537   0.3085   0.3527
   1.600   0.4308   0.00539   0.00084  -0.0536   0.2952   0.3581
   1.700   0.4423   0.00540   0.00085  -0.0537   0.2917   0.3675
   1.800   0.4534   0.00542   0.00088  -0.0537   0.2838   0.3780
   1.900   0.4644   0.00547   0.00090  -0.0537   0.2712   0.3898
   2.000   0.4754   0.00550   0.00094  -0.0537   0.2619   0.4054
   2.100   0.4864   0.00550   0.00096  -0.0537   0.2520   0.4297
   2.200   0.4976   0.00548   0.00098  -0.0537   0.2479   0.4516
   2.300   0.5085   0.00550   0.00101  -0.0536   0.2392   0.4697
   2.400   0.5195   0.00550   0.00104  -0.0536   0.2297   0.4937
   2.500   0.5303   0.00555   0.00108  -0.0536   0.2187   0.5104
   2.600   0.5413   0.00556   0.00110  -0.0536   0.2092   0.5320
   2.700   0.5522   0.00559   0.00114  -0.0536   0.2016   0.5519
   2.800   0.5633   0.00563   0.00118  -0.0535   0.1927   0.5604
   2.900   0.5746   0.00564   0.00120  -0.0536   0.1891   0.5733
   3.000   0.5859   0.00567   0.00122  -0.0536   0.1846   0.5806
   3.100   0.5968   0.00572   0.00127  -0.0536   0.1759   0.5931
   3.200   0.6081   0.00575   0.00129  -0.0536   0.1700   0.6022
   3.400   0.6303   0.00582   0.00137  -0.0536   0.1604   0.6238
   3.500   0.6414   0.00586   0.00141  -0.0536   0.1525   0.6323
   3.600   0.6527   0.00587   0.00143  -0.0536   0.1497   0.6424
   3.700   0.6639   0.00592   0.00146  -0.0536   0.1452   0.6482
   3.800   0.6747   0.00599   0.00152  -0.0535   0.1369   0.6575
   3.900   0.6859   0.00602   0.00155  -0.0535   0.1309   0.6679
   4.000   0.6967   0.00609   0.00160  -0.0535   0.1238   0.6785
   4.100   0.7074   0.00616   0.00166  -0.0534   0.1127   0.6918
   4.200   0.7181   0.00621   0.00171  -0.0534   0.1063   0.7067
   4.300   0.7289   0.00629   0.00177  -0.0533   0.0959   0.7163
   4.500   0.7508   0.00637   0.00187  -0.0532   0.0887   0.7416
   4.600   0.7616   0.00641   0.00191  -0.0532   0.0840   0.7591
   4.700   0.7727   0.00642   0.00196  -0.0532   0.0791   0.7758
   4.800   0.7838   0.00644   0.00199  -0.0532   0.0780   0.7904
   4.900   0.7947   0.00645   0.00204  -0.0531   0.0763   0.8088
   5.000   0.8055   0.00649   0.00209  -0.0530   0.0731   0.8257
   5.100   0.8161   0.00653   0.00215  -0.0530   0.0692   0.8419
   5.200   0.8271   0.00657   0.00220  -0.0529   0.0649   0.8521
   5.300   0.8381   0.00658   0.00224  -0.0529   0.0635   0.8660
   5.400   0.8491   0.00661   0.00228  -0.0528   0.0625   0.8754
   5.500   0.8597   0.00666   0.00234  -0.0527   0.0599   0.8877
   5.600   0.8702   0.00674   0.00241  -0.0526   0.0558   0.8965
   5.700   0.8808   0.00678   0.00246  -0.0525   0.0515   0.9073
   5.800   0.8917   0.00681   0.00250  -0.0524   0.0505   0.9156
   5.900   0.9023   0.00686   0.00256  -0.0523   0.0488   0.9239
   6.000   0.9126   0.00693   0.00263  -0.0521   0.0463   0.9334
   6.100   0.9229   0.00700   0.00270  -0.0520   0.0433   0.9424
   6.200   0.9328   0.00703   0.00275  -0.0517   0.0405   0.9551
   6.300   0.9427   0.00707   0.00280  -0.0514   0.0399   0.9656
   6.400   0.9525   0.00712   0.00285  -0.0511   0.0389   0.9764
   6.500   0.9629   0.00719   0.00291  -0.0509   0.0373   0.9855
   6.600   0.9738   0.00726   0.00297  -0.0509   0.0359   0.9908
   6.700   0.9872   0.00734   0.00304  -0.0514   0.0340   0.9938
   6.800   1.0007   0.00741   0.00309  -0.0520   0.0322   0.9963
   6.900   1.0138   0.00746   0.00315  -0.0524   0.0318   0.9982
   7.000   1.0265   0.00753   0.00320  -0.0528   0.0314   0.9995
   7.100   1.0381   0.00759   0.00326  -0.0529   0.0309   1.0000
   7.200   1.0486   0.00766   0.00332  -0.0528   0.0303   1.0000
   7.300   1.0591   0.00773   0.00338  -0.0527   0.0298   1.0000
   7.400   1.0696   0.00780   0.00344  -0.0526   0.0291   1.0000
   7.500   1.0801   0.00788   0.00350  -0.0525   0.0284   1.0000
   7.600   1.0907   0.00795   0.00356  -0.0524   0.0275   1.0000
   7.700   1.1013   0.00802   0.00362  -0.0523   0.0266   1.0000
   7.800   1.1119   0.00809   0.00368  -0.0522   0.0261   1.0000
   7.900   1.1226   0.00816   0.00375  -0.0521   0.0256   1.0000
   8.000   1.1332   0.00823   0.00381  -0.0521   0.0251   1.0000
   8.100   1.1439   0.00829   0.00387  -0.0520   0.0250   1.0000
   8.200   1.1546   0.00835   0.00393  -0.0519   0.0249   1.0000
   8.300   1.1654   0.00841   0.00398  -0.0519   0.0249   1.0000
   8.400   1.1761   0.00846   0.00404  -0.0518   0.0249   1.0000
   8.500   1.1868   0.00852   0.00409  -0.0518   0.0249   1.0000
   8.600   1.1975   0.00858   0.00415  -0.0517   0.0249   1.0000
   8.700   1.2082   0.00864   0.00421  -0.0517   0.0248   1.0000
   8.800   1.2189   0.00871   0.00427  -0.0516   0.0248   1.0000
   8.900   1.2296   0.00877   0.00433  -0.0515   0.0248   1.0000
   9.000   1.2402   0.00883   0.00439  -0.0515   0.0247   1.0000
   9.100   1.2508   0.00890   0.00445  -0.0514   0.0247   1.0000
   9.200   1.2615   0.00896   0.00452  -0.0514   0.0246   1.0000
   9.300   1.2720   0.00903   0.00458  -0.0513   0.0245   1.0000
   9.400   1.2826   0.00910   0.00465  -0.0512   0.0243   1.0000
   9.500   1.2931   0.00917   0.00472  -0.0511   0.0241   1.0000
   9.600   1.3035   0.00925   0.00479  -0.0510   0.0238   1.0000
   9.700   1.3139   0.00933   0.00487  -0.0509   0.0234   1.0000
   9.800   1.3241   0.00942   0.00495  -0.0508   0.0229   1.0000
   9.900   1.3343   0.00952   0.00504  -0.0507   0.0223   1.0000
  10.000   1.3444   0.00962   0.00513  -0.0505   0.0217   1.0000
  10.100   1.3545   0.00972   0.00522  -0.0504   0.0209   1.0000
  10.200   1.3647   0.00981   0.00530  -0.0503   0.0202   1.0000
  10.300   1.3749   0.00990   0.00539  -0.0502   0.0196   1.0000
  10.400   1.3852   0.00999   0.00547  -0.0500   0.0193   1.0000
  10.500   1.3954   0.01007   0.00555  -0.0499   0.0192   1.0000
  10.600   1.4057   0.01015   0.00562  -0.0498   0.0191   1.0000
  10.700   1.4159   0.01023   0.00571  -0.0497   0.0190   1.0000
  10.800   1.4260   0.01031   0.00579  -0.0496   0.0189   1.0000
  10.900   1.4361   0.01040   0.00588  -0.0494   0.0186   1.0000
  11.000   1.4461   0.01050   0.00597  -0.0493   0.0183   1.0000
  11.100   1.4558   0.01062   0.00608  -0.0491   0.0177   1.0000
  11.200   1.4652   0.01076   0.00620  -0.0489   0.0169   1.0000
  11.300   1.4746   0.01090   0.00633  -0.0486   0.0161   1.0000
  11.400   1.4842   0.01102   0.00644  -0.0484   0.0151   1.0000
  11.500   1.4939   0.01113   0.00655  -0.0482   0.0145   1.0000
  11.600   1.5037   0.01123   0.00665  -0.0480   0.0143   1.0000
  11.700   1.5132   0.01135   0.00676  -0.0478   0.0139   1.0000
  11.800   1.5224   0.01149   0.00689  -0.0475   0.0134   1.0000
  11.900   1.5314   0.01164   0.00704  -0.0472   0.0128   1.0000
  12.000   1.5404   0.01180   0.00718  -0.0469   0.0122   1.0000
  12.100   1.5496   0.01193   0.00732  -0.0467   0.0115   1.0000
  12.200   1.5589   0.01206   0.00744  -0.0464   0.0109   1.0000
  12.300   1.5683   0.01217   0.00755  -0.0462   0.0107   1.0000
  12.400   1.5777   0.01229   0.00767  -0.0460   0.0107   1.0000
  12.500   1.5869   0.01241   0.00779  -0.0457   0.0105   1.0000
  12.600   1.5961   0.01253   0.00791  -0.0454   0.0103   1.0000
  12.700   1.6050   0.01267   0.00805  -0.0451   0.0101   1.0000
  12.800   1.6138   0.01281   0.00819  -0.0448   0.0098   1.0000
  12.900   1.6224   0.01297   0.00834  -0.0445   0.0096   1.0000
  13.000   1.6309   0.01313   0.00850  -0.0441   0.0093   1.0000
  13.100   1.6393   0.01329   0.00866  -0.0437   0.0089   1.0000
  13.200   1.6478   0.01344   0.00881  -0.0433   0.0086   1.0000
  13.300   1.6563   0.01359   0.00896  -0.0430   0.0082   1.0000
  13.400   1.6648   0.01374   0.00910  -0.0426   0.0079   1.0000
  13.500   1.6733   0.01388   0.00924  -0.0422   0.0077   1.0000
  13.600   1.6818   0.01401   0.00938  -0.0419   0.0077   1.0000
  13.700   1.6903   0.01414   0.00951  -0.0415   0.0077   1.0000
  13.800   1.6987   0.01428   0.00966  -0.0412   0.0076   1.0000
  13.900   1.7069   0.01442   0.00980  -0.0408   0.0076   1.0000
  14.000   1.7149   0.01457   0.00995  -0.0403   0.0075   1.0000
  14.100   1.7227   0.01472   0.01011  -0.0399   0.0074   1.0000
  14.200   1.7303   0.01488   0.01027  -0.0393   0.0073   1.0000
  14.300   1.7374   0.01505   0.01044  -0.0388   0.0072   1.0000
  14.400   1.7439   0.01521   0.01061  -0.0381   0.0071   1.0000
  14.500   1.7497   0.01540   0.01079  -0.0372   0.0069   1.0000
  14.600   1.7555   0.01557   0.01097  -0.0364   0.0068   1.0000
  14.700   1.7606   0.01578   0.01118  -0.0355   0.0067   1.0000
  14.800   1.7660   0.01598   0.01139  -0.0346   0.0065   1.0000
  14.900   1.7718   0.01618   0.01159  -0.0338   0.0064   1.0000
  15.000   1.7772   0.01639   0.01181  -0.0330   0.0062   1.0000
  15.100   1.7824   0.01661   0.01203  -0.0322   0.0060   1.0000
  15.200   1.7879   0.01683   0.01226  -0.0314   0.0058   1.0000
  15.300   1.7936   0.01705   0.01248  -0.0306   0.0056   1.0000
  15.400   1.7990   0.01728   0.01272  -0.0299   0.0055   1.0000
  15.500   1.8042   0.01751   0.01296  -0.0291   0.0054   1.0000
  15.600   1.8098   0.01773   0.01319  -0.0284   0.0053   1.0000
  15.700   1.8157   0.01795   0.01341  -0.0277   0.0053   1.0000
  15.800   1.8215   0.01817   0.01365  -0.0271   0.0053   1.0000
  15.900   1.8268   0.01842   0.01390  -0.0264   0.0053   1.0000
  16.000   1.8323   0.01866   0.01415  -0.0257   0.0053   1.0000
  16.100   1.8378   0.01891   0.01441  -0.0251   0.0053   1.0000
  16.200   1.8433   0.01916   0.01467  -0.0245   0.0053   1.0000
  16.300   1.8482   0.01944   0.01496  -0.0238   0.0052   1.0000
  16.400   1.8528   0.01974   0.01526  -0.0231   0.0052   1.0000
  16.500   1.8579   0.02003   0.01556  -0.0224   0.0052   1.0000
  16.600   1.8630   0.02032   0.01587  -0.0218   0.0051   1.0000
  16.700   1.8676   0.02065   0.01621  -0.0211   0.0051   1.0000
  16.800   1.8719   0.02100   0.01656  -0.0205   0.0051   1.0000
  16.900   1.8763   0.02135   0.01692  -0.0198   0.0050   1.0000
  17.000   1.8805   0.02171   0.01729  -0.0192   0.0049   1.0000
  17.100   1.8842   0.02210   0.01770  -0.0185   0.0049   1.0000
  17.200   1.8877   0.02252   0.01812  -0.0178   0.0048   1.0000
  17.300   1.8914   0.02294   0.01856  -0.0172   0.0048   1.0000
  17.400   1.8949   0.02339   0.01902  -0.0166   0.0047   1.0000
  17.500   1.8977   0.02388   0.01952  -0.0160   0.0046   1.0000
  17.600   1.9011   0.02436   0.02001  -0.0154   0.0046   1.0000
  17.700   1.9043   0.02485   0.02051  -0.0148   0.0045   1.0000
  17.800   1.9066   0.02540   0.02108  -0.0142   0.0044   1.0000
  17.900   1.9091   0.02595   0.02163  -0.0136   0.0044   1.0000
  18.000   1.9116   0.02651   0.02221  -0.0130   0.0043   1.0000
  18.100   1.9137   0.02711   0.02283  -0.0125   0.0042   1.0000
  18.200   1.9162   0.02770   0.02343  -0.0120   0.0041   1.0000
  18.300   1.9182   0.02834   0.02409  -0.0115   0.0041   1.0000
  18.400   1.9200   0.02901   0.02477  -0.0110   0.0040   1.0000
  18.500   1.9226   0.02962   0.02540  -0.0106   0.0039   1.0000
  18.600   1.9241   0.03034   0.02614  -0.0102   0.0038   1.0000
  18.700   1.9257   0.03106   0.02688  -0.0098   0.0038   1.0000
  18.800   1.9272   0.03180   0.02763  -0.0094   0.0037   1.0000
  18.900   1.9281   0.03259   0.02844  -0.0091   0.0036   1.0000
  19.000   1.9294   0.03335   0.02921  -0.0087   0.0036   1.0000
  19.100   1.9304   0.03415   0.03004  -0.0084   0.0036   1.0000
  19.200   1.9307   0.03505   0.03095  -0.0081   0.0035   1.0000
  19.300   1.9319   0.03586   0.03178  -0.0078   0.0035   1.0000
  19.400   1.9323   0.03678   0.03273  -0.0076   0.0035   1.0000
  19.500   1.9334   0.03765   0.03361  -0.0074   0.0035   1.0000
  19.600   1.9348   0.03848   0.03446  -0.0073   0.0035   1.0000
  19.700   1.9348   0.03949   0.03549  -0.0072   0.0035   1.0000
  19.800   1.9356   0.04042   0.03644  -0.0070   0.0035   1.0000
  19.900   1.9359   0.04142   0.03746  -0.0069   0.0034   1.0000
  20.000   1.9356   0.04250   0.03857  -0.0069   0.0034   1.0000
