  
       XFOIL         Version 6.99
  
 Calculated polar for: NACA 2412                                       
  
 1 1 Reynolds number fixed          Mach number fixed         
  
 xtrf =   1.000 (top)        1.000 (bottom)  
 Mach =   0.000     Re =     4.200 e 6     Ncrit =   9.000
  
   alpha    CL        CD       CDp       CM     Top_Xtr  Bot_Xtr
  ------ -------- --------- --------- -------- -------- --------
 -10.000  -0.8665   0.00935   0.00504  -0.0551   0.9769   0.0218
  -9.900  -0.8561   0.00929   0.00498  -0.0550   0.9754   0.0219
  -9.800  -0.8458   0.00922   0.00492  -0.0548   0.9733   0.0219
  -9.700  -0.8353   0.00916   0.00485  -0.0546   0.9709   0.0219
  -9.600  -0.8249   0.00910   0.00479  -0.0545   0.9681   0.0220
  -9.500  -0.8144   0.00904   0.00472  -0.0543   0.9653   0.0220
  -9.400  -0.8039   0.00899   0.00466  -0.0541   0.9622   0.0220
  -9.300  -0.7931   0.00893   0.00460  -0.0541   0.9598   0.0221
  -9.200  -0.7824   0.00883   0.00449  -0.0540   0.9581   0.0223
  -9.100  -0.7717   0.00871   0.00436  -0.0539   0.9561   0.0226
  -9.000  -0.7611   0.00861   0.00424  -0.0538   0.9538   0.0230
  -8.900  -0.7505   0.00851   0.00412  -0.0537   0.9512   0.0234
  -8.800  -0.7398   0.00842   0.00403  -0.0535   0.9483   0.0238
  -8.700  -0.7293   0.00834   0.00393  -0.0534   0.9453   0.0242
  -8.600  -0.7186   0.00827   0.00385  -0.0533   0.9418   0.0245
  -8.500  -0.7076   0.00819   0.00377  -0.0532   0.9399   0.0248
  -8.400  -0.6965   0.00811   0.00369  -0.0532   0.9380   0.0251
  -8.300  -0.6855   0.00804   0.00362  -0.0532   0.9356   0.0253
  -8.200  -0.6745   0.00797   0.00355  -0.0531   0.9327   0.0256
  -8.100  -0.6636   0.00791   0.00348  -0.0531   0.9294   0.0258
  -8.000  -0.6527   0.00785   0.00340  -0.0530   0.9258   0.0259
  -7.900  -0.6419   0.00780   0.00334  -0.0529   0.9215   0.0262
  -7.800  -0.6308   0.00774   0.00328  -0.0529   0.9187   0.0264
  -7.700  -0.6195   0.00768   0.00321  -0.0529   0.9163   0.0266
  -7.600  -0.6084   0.00763   0.00315  -0.0528   0.9133   0.0268
  -7.500  -0.5973   0.00757   0.00309  -0.0528   0.9095   0.0270
  -7.400  -0.5863   0.00753   0.00303  -0.0527   0.9054   0.0271
  -7.300  -0.5753   0.00749   0.00297  -0.0527   0.9005   0.0273
  -7.200  -0.5641   0.00744   0.00291  -0.0527   0.8970   0.0275
  -7.100  -0.5528   0.00739   0.00286  -0.0527   0.8940   0.0276
  -7.000  -0.5416   0.00734   0.00280  -0.0526   0.8902   0.0277
  -6.900  -0.5305   0.00730   0.00274  -0.0526   0.8857   0.0278
  -6.800  -0.5194   0.00727   0.00269  -0.0526   0.8806   0.0279
  -6.700  -0.5083   0.00723   0.00264  -0.0525   0.8761   0.0280
  -6.600  -0.4969   0.00719   0.00258  -0.0525   0.8727   0.0281
  -6.500  -0.4856   0.00715   0.00254  -0.0525   0.8685   0.0281
  -6.400  -0.4745   0.00712   0.00249  -0.0525   0.8634   0.0282
  -6.300  -0.4634   0.00709   0.00244  -0.0525   0.8578   0.0282
  -6.200  -0.4521   0.00705   0.00239  -0.0525   0.8539   0.0282
  -6.100  -0.4408   0.00699   0.00231  -0.0525   0.8500   0.0288
  -6.000  -0.4297   0.00693   0.00224  -0.0524   0.8450   0.0296
  -5.900  -0.4186   0.00688   0.00217  -0.0524   0.8391   0.0303
  -5.800  -0.4074   0.00684   0.00211  -0.0523   0.8335   0.0312
  -5.700  -0.3961   0.00678   0.00206  -0.0523   0.8299   0.0320
  -5.600  -0.3848   0.00673   0.00200  -0.0523   0.8253   0.0327
  -5.500  -0.3737   0.00669   0.00195  -0.0523   0.8199   0.0334
  -5.400  -0.3625   0.00666   0.00190  -0.0523   0.8138   0.0339
  -5.300  -0.3511   0.00662   0.00186  -0.0523   0.8100   0.0345
  -5.200  -0.3398   0.00658   0.00182  -0.0523   0.8057   0.0350
  -5.100  -0.3285   0.00655   0.00178  -0.0523   0.8002   0.0354
  -5.000  -0.3172   0.00654   0.00174  -0.0523   0.7938   0.0357
  -4.800  -0.2946   0.00644   0.00164  -0.0523   0.7848   0.0402
  -4.700  -0.2834   0.00639   0.00159  -0.0523   0.7796   0.0426
  -4.600  -0.2722   0.00635   0.00155  -0.0523   0.7737   0.0445
  -4.500  -0.2610   0.00631   0.00150  -0.0523   0.7680   0.0484
  -4.400  -0.2498   0.00623   0.00145  -0.0523   0.7644   0.0534
  -4.300  -0.2385   0.00619   0.00141  -0.0523   0.7593   0.0562
  -4.200  -0.2274   0.00614   0.00137  -0.0523   0.7528   0.0626
  -4.100  -0.2162   0.00609   0.00133  -0.0523   0.7466   0.0670
  -4.000  -0.2047   0.00605   0.00129  -0.0523   0.7428   0.0692
  -3.900  -0.1933   0.00603   0.00127  -0.0523   0.7376   0.0716
  -3.800  -0.1821   0.00599   0.00123  -0.0523   0.7316   0.0767
  -3.700  -0.1709   0.00596   0.00120  -0.0523   0.7253   0.0809
  -3.600  -0.1594   0.00592   0.00117  -0.0523   0.7215   0.0837
  -3.500  -0.1479   0.00590   0.00115  -0.0524   0.7166   0.0850
  -3.400  -0.1366   0.00590   0.00112  -0.0524   0.7105   0.0861
  -3.300  -0.1253   0.00589   0.00110  -0.0524   0.7033   0.0906
  -3.200  -0.1138   0.00585   0.00107  -0.0524   0.6992   0.0949
  -3.100  -0.1025   0.00582   0.00105  -0.0524   0.6935   0.0985
  -3.000  -0.0912   0.00581   0.00103  -0.0524   0.6864   0.1013
  -2.900  -0.0797   0.00580   0.00101  -0.0525   0.6804   0.1029
  -2.800  -0.0682   0.00579   0.00099  -0.0525   0.6757   0.1045
  -2.700  -0.0568   0.00578   0.00097  -0.0525   0.6691   0.1097
  -2.600  -0.0457   0.00576   0.00095  -0.0525   0.6607   0.1146
  -2.500  -0.0342   0.00573   0.00093  -0.0526   0.6557   0.1188
  -2.400  -0.0229   0.00572   0.00091  -0.0526   0.6489   0.1221
  -2.300  -0.0116   0.00573   0.00090  -0.0526   0.6404   0.1274
  -2.200  -0.0003   0.00568   0.00087  -0.0526   0.6351   0.1358
  -2.100   0.0110   0.00566   0.00086  -0.0526   0.6277   0.1415
  -2.000   0.0222   0.00566   0.00085  -0.0526   0.6187   0.1489
  -1.900   0.0335   0.00562   0.00082  -0.0526   0.6129   0.1593
  -1.800   0.0449   0.00560   0.00081  -0.0526   0.6062   0.1666
  -1.700   0.0559   0.00558   0.00080  -0.0526   0.5968   0.1789
  -1.600   0.0673   0.00557   0.00079  -0.0527   0.5907   0.1840
  -1.500   0.0786   0.00554   0.00078  -0.0527   0.5835   0.1960
  -1.400   0.0897   0.00554   0.00077  -0.0527   0.5739   0.2045
  -1.300   0.1011   0.00550   0.00076  -0.0527   0.5689   0.2167
  -1.200   0.1123   0.00549   0.00075  -0.0527   0.5620   0.2259
  -1.100   0.1235   0.00549   0.00075  -0.0527   0.5528   0.2356
  -1.000   0.1349   0.00547   0.00074  -0.0527   0.5478   0.2446
  -0.900   0.1463   0.00546   0.00074  -0.0528   0.5416   0.2520
  -0.800   0.1574   0.00545   0.00074  -0.0528   0.5343   0.2647
  -0.700   0.1687   0.00542   0.00073  -0.0528   0.5278   0.2786
  -0.600   0.1801   0.00540   0.00073  -0.0528   0.5223   0.2889
  -0.500   0.1914   0.00542   0.00073  -0.0528   0.5150   0.2954
  -0.400   0.2026   0.00542   0.00073  -0.0528   0.5073   0.3044
  -0.300   0.2141   0.00541   0.00073  -0.0529   0.5029   0.3110
  -0.200   0.2255   0.00542   0.00074  -0.0529   0.4969   0.3162
  -0.100   0.2368   0.00542   0.00074  -0.0529   0.4904   0.3264
   0.000   0.2482   0.00541   0.00074  -0.0530   0.4854   0.3338
   0.100   0.2597   0.00540   0.00074  -0.0530   0.4830   0.3435
   0.200   0.2711   0.00537   0.00074  -0.0530   0.4795   0.3545
   0.300   0.2824   0.00535   0.00075  -0.0531   0.4747   0.3707
   0.500   0.3049   0.00532   0.00076  -0.0531   0.4633   0.3996
   0.600   0.3163   0.00529   0.00076  -0.0531   0.4604   0.4143
   0.700   0.3277   0.00528   0.00077  -0.0532   0.4555   0.4272
   0.800   0.3389   0.00526   0.00078  -0.0532   0.4507   0.4430
   0.900   0.3501   0.00526   0.00079  -0.0532   0.4453   0.4575
   1.000   0.3615   0.00524   0.00080  -0.0532   0.4412   0.4707
   1.100   0.3728   0.00522   0.00081  -0.0533   0.4371   0.4869
   1.200   0.3840   0.00522   0.00082  -0.0533   0.4303   0.5023
   1.300   0.3950   0.00521   0.00084  -0.0533   0.4225   0.5212
   1.400   0.4062   0.00517   0.00085  -0.0533   0.4181   0.5465
   1.500   0.4174   0.00515   0.00087  -0.0533   0.4133   0.5657
   1.600   0.4284   0.00516   0.00089  -0.0532   0.4046   0.5842
   1.700   0.4395   0.00516   0.00091  -0.0532   0.3973   0.6003
   1.800   0.4506   0.00515   0.00093  -0.0532   0.3913   0.6185
   1.900   0.4615   0.00517   0.00096  -0.0532   0.3816   0.6366
   2.000   0.4727   0.00517   0.00097  -0.0532   0.3761   0.6520
   2.100   0.4837   0.00518   0.00100  -0.0532   0.3671   0.6681
   2.200   0.4945   0.00521   0.00103  -0.0531   0.3570   0.6828
   2.300   0.5059   0.00521   0.00105  -0.0531   0.3532   0.6956
   2.400   0.5168   0.00523   0.00108  -0.0531   0.3459   0.7121
   2.500   0.5276   0.00526   0.00111  -0.0530   0.3352   0.7281
   2.600   0.5387   0.00528   0.00114  -0.0530   0.3286   0.7413
   2.700   0.5493   0.00533   0.00118  -0.0529   0.3170   0.7565
   2.800   0.5603   0.00535   0.00121  -0.0529   0.3091   0.7699
   2.900   0.5708   0.00543   0.00126  -0.0528   0.2955   0.7833
   3.000   0.5816   0.00544   0.00129  -0.0527   0.2878   0.7993
   3.100   0.5920   0.00550   0.00135  -0.0525   0.2752   0.8173
   3.200   0.6027   0.00552   0.00139  -0.0524   0.2673   0.8329
   3.300   0.6132   0.00559   0.00144  -0.0523   0.2573   0.8468
   3.400   0.6239   0.00561   0.00147  -0.0522   0.2502   0.8605
   3.500   0.6347   0.00565   0.00152  -0.0521   0.2432   0.8718
   3.600   0.6449   0.00572   0.00157  -0.0519   0.2321   0.8832
   3.700   0.6557   0.00575   0.00161  -0.0518   0.2271   0.8939
   3.800   0.6658   0.00581   0.00167  -0.0516   0.2184   0.9061
   3.900   0.6763   0.00587   0.00171  -0.0514   0.2102   0.9160
   4.000   0.6864   0.00590   0.00176  -0.0511   0.2044   0.9283
   4.100   0.6964   0.00599   0.00182  -0.0509   0.1948   0.9380
   4.200   0.7064   0.00603   0.00186  -0.0506   0.1888   0.9479
   4.300   0.7165   0.00610   0.00191  -0.0504   0.1825   0.9562
   4.400   0.7265   0.00619   0.00198  -0.0501   0.1727   0.9629
   4.500   0.7369   0.00624   0.00202  -0.0499   0.1681   0.9702
   4.600   0.7474   0.00634   0.00208  -0.0497   0.1606   0.9757
   4.700   0.7588   0.00644   0.00214  -0.0498   0.1507   0.9801
   4.800   0.7707   0.00652   0.00219  -0.0500   0.1449   0.9838
   4.900   0.7819   0.00666   0.00227  -0.0501   0.1322   0.9873
   5.000   0.7933   0.00673   0.00232  -0.0502   0.1275   0.9902
   5.200   0.8189   0.00698   0.00248  -0.0510   0.1091   0.9940
   5.300   0.8321   0.00714   0.00257  -0.0515   0.0981   0.9958
   5.400   0.8458   0.00723   0.00264  -0.0521   0.0929   0.9972
   5.500   0.8593   0.00734   0.00271  -0.0527   0.0880   0.9984
   5.600   0.8728   0.00745   0.00279  -0.0533   0.0819   0.9993
   5.700   0.8866   0.00753   0.00285  -0.0539   0.0783   1.0000
   5.800   0.8965   0.00759   0.00290  -0.0537   0.0767   1.0000
   5.900   0.9061   0.00767   0.00296  -0.0533   0.0737   1.0000
   6.000   0.9155   0.00778   0.00304  -0.0530   0.0699   1.0000
   6.100   0.9252   0.00787   0.00310  -0.0527   0.0653   1.0000
   6.200   0.9353   0.00793   0.00316  -0.0525   0.0634   1.0000
   6.300   0.9454   0.00800   0.00322  -0.0523   0.0618   1.0000
   6.400   0.9553   0.00809   0.00329  -0.0520   0.0589   1.0000
   6.500   0.9650   0.00821   0.00338  -0.0518   0.0548   1.0000
   6.600   0.9752   0.00830   0.00345  -0.0516   0.0510   1.0000
   6.700   0.9855   0.00838   0.00351  -0.0514   0.0498   1.0000
   6.800   0.9957   0.00847   0.00358  -0.0513   0.0478   1.0000
   6.900   1.0057   0.00858   0.00367  -0.0511   0.0451   1.0000
   7.000   1.0158   0.00869   0.00375  -0.0509   0.0418   1.0000
   7.100   1.0262   0.00877   0.00382  -0.0508   0.0402   1.0000
   7.200   1.0366   0.00884   0.00389  -0.0506   0.0394   1.0000
   7.300   1.0470   0.00893   0.00397  -0.0505   0.0384   1.0000
   7.400   1.0572   0.00902   0.00405  -0.0503   0.0372   1.0000
   7.500   1.0674   0.00913   0.00414  -0.0502   0.0358   1.0000
   7.600   1.0776   0.00923   0.00423  -0.0500   0.0340   1.0000
   7.700   1.0878   0.00933   0.00432  -0.0499   0.0325   1.0000
   7.800   1.0983   0.00941   0.00439  -0.0498   0.0319   1.0000
   7.900   1.1088   0.00948   0.00446  -0.0497   0.0318   1.0000
   8.000   1.1194   0.00954   0.00453  -0.0496   0.0317   1.0000
   8.100   1.1299   0.00962   0.00460  -0.0495   0.0315   1.0000
   8.200   1.1404   0.00969   0.00467  -0.0494   0.0313   1.0000
   8.300   1.1508   0.00976   0.00474  -0.0493   0.0310   1.0000
   8.400   1.1612   0.00984   0.00482  -0.0492   0.0307   1.0000
   8.500   1.1716   0.00993   0.00490  -0.0491   0.0304   1.0000
   8.600   1.1819   0.01001   0.00498  -0.0490   0.0301   1.0000
   8.700   1.1922   0.01010   0.00507  -0.0488   0.0298   1.0000
   8.800   1.2024   0.01019   0.00516  -0.0487   0.0294   1.0000
   8.900   1.2126   0.01029   0.00525  -0.0486   0.0290   1.0000
   9.000   1.2227   0.01039   0.00534  -0.0484   0.0285   1.0000
   9.100   1.2328   0.01049   0.00544  -0.0483   0.0280   1.0000
   9.200   1.2428   0.01060   0.00554  -0.0481   0.0273   1.0000
   9.300   1.2529   0.01070   0.00564  -0.0479   0.0268   1.0000
   9.400   1.2629   0.01081   0.00574  -0.0478   0.0263   1.0000
   9.500   1.2729   0.01091   0.00585  -0.0476   0.0259   1.0000
   9.600   1.2829   0.01102   0.00596  -0.0474   0.0255   1.0000
   9.700   1.2928   0.01113   0.00608  -0.0473   0.0251   1.0000
   9.800   1.3029   0.01122   0.00617  -0.0471   0.0249   1.0000
   9.900   1.3131   0.01130   0.00625  -0.0470   0.0249   1.0000
  10.000   1.3232   0.01138   0.00633  -0.0469   0.0249   1.0000
  10.100   1.3334   0.01147   0.00642  -0.0467   0.0248   1.0000
  10.200   1.3435   0.01155   0.00650  -0.0466   0.0247   1.0000
  10.300   1.3536   0.01163   0.00659  -0.0465   0.0246   1.0000
  10.400   1.3636   0.01172   0.00667  -0.0463   0.0245   1.0000
  10.500   1.3736   0.01181   0.00676  -0.0462   0.0244   1.0000
  10.600   1.3835   0.01190   0.00686  -0.0460   0.0242   1.0000
  10.700   1.3934   0.01200   0.00695  -0.0458   0.0239   1.0000
  10.800   1.4031   0.01210   0.00705  -0.0457   0.0236   1.0000
  10.900   1.4128   0.01220   0.00716  -0.0455   0.0233   1.0000
  11.000   1.4224   0.01232   0.00727  -0.0452   0.0229   1.0000
  11.100   1.4318   0.01244   0.00739  -0.0450   0.0225   1.0000
  11.200   1.4412   0.01257   0.00752  -0.0448   0.0220   1.0000
  11.300   1.4503   0.01271   0.00765  -0.0445   0.0214   1.0000
  11.400   1.4594   0.01285   0.00778  -0.0442   0.0208   1.0000
  11.500   1.4685   0.01299   0.00792  -0.0439   0.0201   1.0000
  11.600   1.4775   0.01313   0.00806  -0.0436   0.0194   1.0000
  11.700   1.4868   0.01325   0.00818  -0.0434   0.0192   1.0000
  11.800   1.4962   0.01336   0.00830  -0.0431   0.0191   1.0000
  11.900   1.5055   0.01347   0.00841  -0.0429   0.0190   1.0000
  12.000   1.5147   0.01359   0.00853  -0.0426   0.0188   1.0000
  12.100   1.5237   0.01372   0.00866  -0.0423   0.0185   1.0000
  12.200   1.5326   0.01385   0.00879  -0.0420   0.0182   1.0000
  12.300   1.5412   0.01400   0.00894  -0.0417   0.0177   1.0000
  12.400   1.5497   0.01416   0.00910  -0.0413   0.0172   1.0000
  12.500   1.5578   0.01433   0.00927  -0.0409   0.0166   1.0000
  12.600   1.5657   0.01452   0.00945  -0.0404   0.0158   1.0000
  12.700   1.5736   0.01471   0.00962  -0.0400   0.0149   1.0000
  12.800   1.5818   0.01486   0.00978  -0.0396   0.0145   1.0000
  12.900   1.5901   0.01501   0.00994  -0.0392   0.0143   1.0000
  13.000   1.5981   0.01517   0.01010  -0.0388   0.0140   1.0000
  13.100   1.6058   0.01534   0.01027  -0.0383   0.0137   1.0000
  13.200   1.6131   0.01553   0.01046  -0.0377   0.0133   1.0000
  13.300   1.6199   0.01574   0.01066  -0.0371   0.0128   1.0000
  13.400   1.6260   0.01594   0.01087  -0.0363   0.0124   1.0000
  13.500   1.6318   0.01615   0.01107  -0.0355   0.0119   1.0000
  13.600   1.6375   0.01636   0.01129  -0.0347   0.0114   1.0000
  13.700   1.6432   0.01656   0.01150  -0.0339   0.0109   1.0000
  13.800   1.6494   0.01675   0.01169  -0.0331   0.0108   1.0000
  13.900   1.6560   0.01693   0.01188  -0.0325   0.0107   1.0000
  14.000   1.6622   0.01712   0.01208  -0.0318   0.0106   1.0000
  14.100   1.6682   0.01731   0.01229  -0.0311   0.0105   1.0000
  14.200   1.6742   0.01752   0.01251  -0.0304   0.0104   1.0000
  14.300   1.6801   0.01774   0.01274  -0.0297   0.0102   1.0000
  14.400   1.6859   0.01797   0.01298  -0.0290   0.0100   1.0000
  14.500   1.6911   0.01823   0.01324  -0.0282   0.0098   1.0000
  14.600   1.6963   0.01848   0.01351  -0.0274   0.0097   1.0000
  14.700   1.7014   0.01876   0.01379  -0.0267   0.0095   1.0000
  14.800   1.7062   0.01905   0.01409  -0.0259   0.0093   1.0000
  14.900   1.7107   0.01936   0.01441  -0.0251   0.0090   1.0000
  15.000   1.7154   0.01968   0.01474  -0.0244   0.0088   1.0000
  15.100   1.7199   0.02001   0.01508  -0.0236   0.0085   1.0000
  15.200   1.7241   0.02035   0.01542  -0.0228   0.0082   1.0000
  15.300   1.7282   0.02070   0.01579  -0.0220   0.0080   1.0000
  15.400   1.7324   0.02106   0.01617  -0.0213   0.0077   1.0000
  15.500   1.7377   0.02136   0.01648  -0.0207   0.0077   1.0000
  15.600   1.7427   0.02167   0.01681  -0.0201   0.0077   1.0000
  15.700   1.7475   0.02201   0.01716  -0.0195   0.0077   1.0000
  15.800   1.7524   0.02234   0.01751  -0.0189   0.0076   1.0000
  15.900   1.7572   0.02269   0.01787  -0.0184   0.0076   1.0000
  16.000   1.7615   0.02306   0.01826  -0.0177   0.0076   1.0000
  16.100   1.7657   0.02345   0.01866  -0.0172   0.0075   1.0000
  16.200   1.7701   0.02384   0.01906  -0.0166   0.0075   1.0000
  16.300   1.7741   0.02427   0.01951  -0.0160   0.0074   1.0000
  16.400   1.7778   0.02471   0.01997  -0.0155   0.0073   1.0000
  16.500   1.7817   0.02516   0.02044  -0.0149   0.0073   1.0000
  16.600   1.7854   0.02563   0.02093  -0.0144   0.0072   1.0000
  16.700   1.7885   0.02616   0.02147  -0.0139   0.0071   1.0000
  16.800   1.7918   0.02667   0.02199  -0.0133   0.0071   1.0000
  16.900   1.7947   0.02721   0.02255  -0.0128   0.0070   1.0000
  17.000   1.7970   0.02781   0.02317  -0.0123   0.0069   1.0000
  17.100   1.7997   0.02839   0.02377  -0.0118   0.0068   1.0000
  17.200   1.8019   0.02904   0.02443  -0.0113   0.0067   1.0000
  17.300   1.8036   0.02973   0.02514  -0.0108   0.0066   1.0000
  17.400   1.8059   0.03039   0.02582  -0.0104   0.0065   1.0000
  17.500   1.8071   0.03115   0.02660  -0.0100   0.0064   1.0000
  17.600   1.8087   0.03189   0.02736  -0.0096   0.0063   1.0000
  17.700   1.8097   0.03270   0.02819  -0.0092   0.0062   1.0000
  17.800   1.8110   0.03350   0.02901  -0.0089   0.0062   1.0000
  17.900   1.8115   0.03434   0.02988  -0.0085   0.0060   1.0000
  18.000   1.8117   0.03527   0.03083  -0.0082   0.0059   1.0000
  18.100   1.8119   0.03618   0.03177  -0.0079   0.0058   1.0000
  18.200   1.8120   0.03715   0.03276  -0.0077   0.0057   1.0000
  18.300   1.8117   0.03817   0.03380  -0.0075   0.0056   1.0000
  18.400   1.8113   0.03921   0.03487  -0.0073   0.0055   1.0000
  18.500   1.8106   0.04031   0.03601  -0.0072   0.0054   1.0000
  18.600   1.8100   0.04140   0.03713  -0.0070   0.0053   1.0000
  18.700   1.8101   0.04246   0.03821  -0.0070   0.0053   1.0000
  18.800   1.8110   0.04342   0.03920  -0.0070   0.0053   1.0000
  18.900   1.8107   0.04453   0.04033  -0.0070   0.0053   1.0000
  19.000   1.8104   0.04564   0.04147  -0.0070   0.0053   1.0000
  19.100   1.8104   0.04672   0.04258  -0.0070   0.0053   1.0000
  19.200   1.8092   0.04798   0.04387  -0.0071   0.0053   1.0000
  19.300   1.8090   0.04912   0.04504  -0.0071   0.0053   1.0000
  19.400   1.8075   0.05046   0.04641  -0.0073   0.0053   1.0000
  19.500   1.8067   0.05171   0.04768  -0.0075   0.0053   1.0000
  19.600   1.8056   0.05301   0.04901  -0.0076   0.0053   1.0000
  19.700   1.8034   0.05448   0.05051  -0.0079   0.0052   1.0000
  19.800   1.8024   0.05578   0.05183  -0.0081   0.0052   1.0000
  19.900   1.7993   0.05740   0.05349  -0.0085   0.0052   1.0000
  20.000   1.7976   0.05882   0.05494  -0.0087   0.0052   1.0000
