  
       XFOIL         Version 6.99
  
 Calculated polar for: NACA 2412                                       
  
 1 1 Reynolds number fixed          Mach number fixed         
  
 xtrf =   1.000 (top)        1.000 (bottom)  
 Mach =   0.000     Re =     5.600 e 6     Ncrit =   9.000
  
   alpha    CL        CD       CDp       CM     Top_Xtr  Bot_Xtr
  ------ -------- --------- --------- -------- -------- --------
 -10.000  -0.8764   0.00866   0.00448  -0.0531   0.9613   0.0214
  -9.900  -0.8655   0.00861   0.00442  -0.0531   0.9594   0.0215
  -9.800  -0.8545   0.00855   0.00436  -0.0530   0.9576   0.0216
  -9.700  -0.8436   0.00849   0.00430  -0.0530   0.9553   0.0217
  -9.600  -0.8327   0.00843   0.00424  -0.0529   0.9526   0.0218
  -9.500  -0.8219   0.00838   0.00418  -0.0528   0.9498   0.0218
  -9.400  -0.8111   0.00833   0.00412  -0.0527   0.9468   0.0219
  -9.300  -0.8004   0.00828   0.00406  -0.0526   0.9432   0.0219
  -9.200  -0.7893   0.00823   0.00400  -0.0526   0.9405   0.0220
  -9.100  -0.7781   0.00817   0.00394  -0.0526   0.9390   0.0220
  -9.000  -0.7670   0.00812   0.00389  -0.0526   0.9371   0.0220
  -8.900  -0.7559   0.00806   0.00383  -0.0526   0.9346   0.0220
  -8.800  -0.7448   0.00801   0.00377  -0.0525   0.9315   0.0220
  -8.700  -0.7339   0.00797   0.00372  -0.0525   0.9279   0.0221
  -8.600  -0.7231   0.00790   0.00363  -0.0524   0.9239   0.0222
  -8.500  -0.7123   0.00782   0.00353  -0.0523   0.9197   0.0226
  -8.400  -0.7012   0.00774   0.00344  -0.0523   0.9179   0.0229
  -8.300  -0.6901   0.00766   0.00335  -0.0522   0.9152   0.0233
  -8.200  -0.6790   0.00759   0.00327  -0.0522   0.9118   0.0236
  -8.100  -0.6680   0.00753   0.00320  -0.0522   0.9078   0.0238
  -8.000  -0.6571   0.00748   0.00313  -0.0521   0.9030   0.0241
  -7.900  -0.6461   0.00742   0.00306  -0.0520   0.8982   0.0244
  -7.800  -0.6349   0.00736   0.00299  -0.0520   0.8958   0.0246
  -7.700  -0.6237   0.00729   0.00292  -0.0520   0.8924   0.0251
  -7.600  -0.6126   0.00724   0.00286  -0.0520   0.8883   0.0253
  -7.500  -0.6016   0.00719   0.00280  -0.0519   0.8831   0.0256
  -7.400  -0.5906   0.00715   0.00274  -0.0519   0.8774   0.0259
  -7.300  -0.5793   0.00709   0.00268  -0.0519   0.8747   0.0261
  -7.200  -0.5680   0.00704   0.00263  -0.0519   0.8709   0.0264
  -7.100  -0.5568   0.00700   0.00258  -0.0519   0.8661   0.0266
  -7.000  -0.5457   0.00697   0.00252  -0.0518   0.8605   0.0268
  -6.900  -0.5345   0.00693   0.00247  -0.0518   0.8551   0.0270
  -6.800  -0.5231   0.00689   0.00242  -0.0518   0.8520   0.0272
  -6.700  -0.5118   0.00685   0.00237  -0.0518   0.8475   0.0274
  -6.600  -0.5006   0.00681   0.00232  -0.0518   0.8425   0.0276
  -6.500  -0.4894   0.00679   0.00228  -0.0518   0.8360   0.0278
  -6.400  -0.4780   0.00676   0.00223  -0.0518   0.8321   0.0279
  -6.300  -0.4667   0.00672   0.00219  -0.0518   0.8281   0.0279
  -6.200  -0.4554   0.00669   0.00215  -0.0518   0.8227   0.0280
  -6.100  -0.4441   0.00667   0.00211  -0.0518   0.8165   0.0281
  -6.000  -0.4328   0.00664   0.00207  -0.0518   0.8115   0.0282
  -5.900  -0.4213   0.00661   0.00203  -0.0519   0.8080   0.0282
  -5.800  -0.4099   0.00658   0.00199  -0.0519   0.8035   0.0282
  -5.700  -0.3987   0.00655   0.00194  -0.0519   0.7978   0.0285
  -5.600  -0.3874   0.00652   0.00189  -0.0519   0.7909   0.0292
  -5.500  -0.3760   0.00647   0.00183  -0.0519   0.7877   0.0301
  -5.400  -0.3647   0.00643   0.00179  -0.0519   0.7830   0.0309
  -5.300  -0.3534   0.00640   0.00174  -0.0519   0.7769   0.0320
  -5.200  -0.3422   0.00637   0.00170  -0.0519   0.7702   0.0327
  -5.100  -0.3308   0.00632   0.00165  -0.0519   0.7666   0.0335
  -5.000  -0.3194   0.00628   0.00161  -0.0519   0.7626   0.0342
  -4.900  -0.3080   0.00625   0.00158  -0.0519   0.7573   0.0348
  -4.800  -0.2967   0.00624   0.00154  -0.0519   0.7503   0.0353
  -4.500  -0.2626   0.00612   0.00142  -0.0520   0.7353   0.0414
  -4.400  -0.2514   0.00608   0.00138  -0.0520   0.7293   0.0437
  -4.300  -0.2400   0.00605   0.00134  -0.0520   0.7242   0.0458
  -4.200  -0.2288   0.00597   0.00130  -0.0520   0.7204   0.0522
  -4.100  -0.2174   0.00593   0.00126  -0.0520   0.7154   0.0555
  -4.000  -0.2062   0.00590   0.00123  -0.0520   0.7091   0.0597
  -3.900  -0.1949   0.00585   0.00119  -0.0520   0.7029   0.0651
  -3.800  -0.1835   0.00581   0.00116  -0.0521   0.6992   0.0682
  -3.700  -0.1720   0.00579   0.00113  -0.0521   0.6937   0.0696
  -3.600  -0.1607   0.00578   0.00111  -0.0521   0.6859   0.0733
  -3.500  -0.1494   0.00574   0.00108  -0.0521   0.6805   0.0781
  -3.400  -0.1380   0.00570   0.00105  -0.0522   0.6760   0.0819
  -3.300  -0.1266   0.00569   0.00103  -0.0522   0.6692   0.0841
  -3.200  -0.1152   0.00569   0.00101  -0.0522   0.6614   0.0852
  -3.100  -0.1037   0.00568   0.00099  -0.0523   0.6570   0.0864
  -3.000  -0.0922   0.00566   0.00097  -0.0523   0.6512   0.0909
  -2.900  -0.0810   0.00565   0.00095  -0.0523   0.6426   0.0952
  -2.800  -0.0696   0.00563   0.00093  -0.0523   0.6359   0.0988
  -2.700  -0.0582   0.00561   0.00091  -0.0523   0.6296   0.1014
  -2.600  -0.0468   0.00563   0.00090  -0.0523   0.6210   0.1029
  -2.500  -0.0353   0.00562   0.00088  -0.0524   0.6145   0.1041
  -2.400  -0.0239   0.00561   0.00087  -0.0524   0.6085   0.1094
  -2.300  -0.0127   0.00561   0.00085  -0.0524   0.5996   0.1143
  -2.200  -0.0013   0.00559   0.00084  -0.0524   0.5925   0.1186
  -2.100   0.0102   0.00558   0.00082  -0.0525   0.5866   0.1218
  -2.000   0.0215   0.00559   0.00082  -0.0525   0.5777   0.1260
  -1.900   0.0328   0.00556   0.00080  -0.0525   0.5709   0.1346
  -1.800   0.0442   0.00554   0.00078  -0.0525   0.5648   0.1412
  -1.700   0.0554   0.00554   0.00078  -0.0525   0.5564   0.1496
  -1.600   0.0667   0.00550   0.00076  -0.0526   0.5499   0.1604
  -1.500   0.0782   0.00549   0.00075  -0.0526   0.5448   0.1652
  -1.400   0.0894   0.00546   0.00074  -0.0526   0.5379   0.1773
  -1.300   0.1006   0.00546   0.00073  -0.0526   0.5293   0.1841
  -1.200   0.1121   0.00543   0.00072  -0.0527   0.5254   0.1961
  -1.100   0.1235   0.00540   0.00071  -0.0527   0.5205   0.2044
  -1.000   0.1347   0.00540   0.00071  -0.0527   0.5128   0.2147
  -0.900   0.1460   0.00538   0.00071  -0.0527   0.5065   0.2242
  -0.800   0.1576   0.00538   0.00070  -0.0528   0.5018   0.2301
  -0.700   0.1688   0.00535   0.00070  -0.0528   0.4953   0.2435
  -0.600   0.1801   0.00537   0.00070  -0.0528   0.4861   0.2510
  -0.500   0.1914   0.00531   0.00070  -0.0528   0.4831   0.2683
  -0.400   0.2029   0.00531   0.00070  -0.0529   0.4793   0.2744
  -0.300   0.2143   0.00530   0.00070  -0.0529   0.4744   0.2849
  -0.200   0.2257   0.00530   0.00070  -0.0530   0.4692   0.2902
  -0.100   0.2372   0.00531   0.00070  -0.0530   0.4641   0.2943
   0.000   0.2488   0.00529   0.00070  -0.0531   0.4621   0.3034
   0.100   0.2603   0.00528   0.00070  -0.0531   0.4581   0.3102
   0.200   0.2717   0.00530   0.00071  -0.0531   0.4527   0.3142
   0.300   0.2830   0.00531   0.00072  -0.0532   0.4457   0.3241
   0.400   0.2945   0.00529   0.00072  -0.0532   0.4418   0.3328
   0.500   0.3060   0.00528   0.00072  -0.0533   0.4392   0.3428
   0.600   0.3174   0.00525   0.00073  -0.0533   0.4361   0.3575
   0.700   0.3287   0.00523   0.00073  -0.0533   0.4318   0.3705
   0.800   0.3400   0.00524   0.00074  -0.0534   0.4254   0.3806
   1.000   0.3627   0.00523   0.00076  -0.0534   0.4145   0.4037
   1.100   0.3739   0.00523   0.00077  -0.0534   0.4078   0.4185
   1.200   0.3851   0.00525   0.00079  -0.0534   0.3994   0.4299
   1.300   0.3965   0.00523   0.00079  -0.0535   0.3958   0.4442
   1.500   0.4186   0.00523   0.00083  -0.0535   0.3783   0.4811
   1.600   0.4297   0.00520   0.00085  -0.0535   0.3725   0.5048
   1.700   0.4406   0.00521   0.00087  -0.0534   0.3641   0.5250
   1.800   0.4518   0.00520   0.00089  -0.0535   0.3569   0.5455
   1.900   0.4629   0.00521   0.00091  -0.0534   0.3487   0.5619
   2.000   0.4738   0.00523   0.00094  -0.0534   0.3400   0.5801
   2.100   0.4850   0.00522   0.00096  -0.0534   0.3338   0.5980
   2.200   0.4961   0.00524   0.00098  -0.0534   0.3270   0.6116
   2.300   0.5069   0.00529   0.00102  -0.0534   0.3142   0.6268
   2.400   0.5180   0.00529   0.00104  -0.0534   0.3082   0.6412
   2.500   0.5288   0.00536   0.00109  -0.0533   0.2957   0.6530
   2.600   0.5400   0.00537   0.00111  -0.0533   0.2890   0.6660
   2.700   0.5507   0.00544   0.00116  -0.0532   0.2768   0.6788
   2.800   0.5617   0.00547   0.00118  -0.0532   0.2681   0.6919
   2.900   0.5723   0.00554   0.00124  -0.0531   0.2554   0.7052
   3.000   0.5834   0.00557   0.00126  -0.0531   0.2478   0.7158
   3.100   0.5941   0.00563   0.00131  -0.0530   0.2376   0.7286
   3.200   0.6052   0.00567   0.00135  -0.0530   0.2300   0.7400
   3.300   0.6161   0.00569   0.00138  -0.0530   0.2243   0.7546
   3.400   0.6267   0.00574   0.00144  -0.0529   0.2141   0.7712
   3.500   0.6378   0.00575   0.00147  -0.0529   0.2090   0.7892
   3.600   0.6485   0.00578   0.00151  -0.0528   0.2022   0.8060
   3.700   0.6591   0.00583   0.00156  -0.0527   0.1920   0.8220
   3.800   0.6701   0.00585   0.00160  -0.0526   0.1880   0.8348
   3.900   0.6808   0.00590   0.00165  -0.0525   0.1816   0.8484
   4.000   0.6912   0.00595   0.00170  -0.0524   0.1719   0.8620
   4.100   0.7022   0.00598   0.00174  -0.0523   0.1681   0.8735
   4.200   0.7126   0.00602   0.00180  -0.0522   0.1619   0.8867
   4.300   0.7230   0.00610   0.00186  -0.0520   0.1525   0.8981
   4.400   0.7335   0.00612   0.00190  -0.0518   0.1484   0.9109
   4.500   0.7436   0.00621   0.00197  -0.0516   0.1397   0.9210
   4.600   0.7536   0.00627   0.00202  -0.0514   0.1308   0.9315
   4.800   0.7733   0.00645   0.00216  -0.0508   0.1130   0.9498
   4.900   0.7836   0.00652   0.00221  -0.0506   0.1084   0.9576
   5.000   0.7930   0.00664   0.00229  -0.0502   0.0987   0.9654
   5.100   0.8033   0.00670   0.00234  -0.0500   0.0937   0.9721
   5.200   0.8139   0.00678   0.00240  -0.0499   0.0898   0.9769
   5.300   0.8251   0.00687   0.00247  -0.0499   0.0846   0.9814
   5.400   0.8368   0.00694   0.00252  -0.0501   0.0792   0.9858
   5.500   0.8484   0.00699   0.00257  -0.0502   0.0779   0.9897
   5.700   0.8746   0.00717   0.00270  -0.0511   0.0713   0.9945
   5.800   0.8881   0.00727   0.00276  -0.0517   0.0666   0.9964
   5.900   0.9017   0.00734   0.00282  -0.0523   0.0636   0.9980
   6.000   0.9153   0.00741   0.00288  -0.0528   0.0621   0.9991
   6.100   0.9284   0.00751   0.00295  -0.0533   0.0589   0.9998
   6.200   0.9389   0.00762   0.00303  -0.0532   0.0548   1.0000
   6.300   0.9488   0.00770   0.00309  -0.0530   0.0510   1.0000
   6.400   0.9589   0.00776   0.00314  -0.0527   0.0499   1.0000
   6.500   0.9689   0.00785   0.00321  -0.0525   0.0479   1.0000
   6.600   0.9787   0.00795   0.00329  -0.0523   0.0455   1.0000
   6.700   0.9888   0.00804   0.00336  -0.0521   0.0423   1.0000
   6.800   0.9992   0.00811   0.00342  -0.0519   0.0403   1.0000
   6.900   1.0096   0.00819   0.00348  -0.0518   0.0394   1.0000
   7.000   1.0199   0.00826   0.00355  -0.0516   0.0383   1.0000
   7.100   1.0302   0.00836   0.00362  -0.0515   0.0371   1.0000
   7.200   1.0404   0.00845   0.00370  -0.0513   0.0354   1.0000
   7.300   1.0508   0.00854   0.00378  -0.0512   0.0336   1.0000
   7.400   1.0612   0.00862   0.00385  -0.0511   0.0319   1.0000
   7.500   1.0718   0.00868   0.00391  -0.0510   0.0318   1.0000
   7.600   1.0825   0.00875   0.00397  -0.0509   0.0317   1.0000
   7.700   1.0931   0.00881   0.00403  -0.0508   0.0315   1.0000
   7.800   1.1037   0.00888   0.00410  -0.0507   0.0312   1.0000
   7.900   1.1142   0.00895   0.00416  -0.0506   0.0309   1.0000
   8.000   1.1247   0.00903   0.00423  -0.0505   0.0304   1.0000
   8.100   1.1352   0.00911   0.00431  -0.0504   0.0300   1.0000
   8.200   1.1456   0.00919   0.00438  -0.0503   0.0296   1.0000
   8.300   1.1560   0.00928   0.00446  -0.0502   0.0292   1.0000
   8.400   1.1663   0.00936   0.00454  -0.0501   0.0287   1.0000
   8.500   1.1767   0.00945   0.00462  -0.0500   0.0282   1.0000
   8.600   1.1870   0.00954   0.00470  -0.0499   0.0276   1.0000
   8.700   1.1973   0.00963   0.00479  -0.0497   0.0270   1.0000
   8.800   1.2076   0.00972   0.00487  -0.0496   0.0264   1.0000
   8.900   1.2179   0.00981   0.00496  -0.0495   0.0259   1.0000
   9.000   1.2282   0.00990   0.00505  -0.0494   0.0255   1.0000
   9.100   1.2385   0.00999   0.00514  -0.0492   0.0252   1.0000
   9.200   1.2488   0.01007   0.00523  -0.0491   0.0250   1.0000
   9.300   1.2593   0.01015   0.00530  -0.0490   0.0249   1.0000
   9.400   1.2697   0.01022   0.00537  -0.0489   0.0249   1.0000
   9.500   1.2801   0.01029   0.00544  -0.0488   0.0249   1.0000
   9.600   1.2904   0.01037   0.00552  -0.0487   0.0248   1.0000
   9.700   1.3008   0.01044   0.00560  -0.0486   0.0248   1.0000
   9.800   1.3111   0.01052   0.00567  -0.0485   0.0247   1.0000
   9.900   1.3214   0.01060   0.00575  -0.0484   0.0246   1.0000
  10.000   1.3317   0.01067   0.00583  -0.0483   0.0245   1.0000
  10.100   1.3419   0.01075   0.00591  -0.0482   0.0244   1.0000
  10.200   1.3521   0.01084   0.00599  -0.0481   0.0242   1.0000
  10.300   1.3622   0.01093   0.00608  -0.0479   0.0239   1.0000
  10.400   1.3722   0.01102   0.00617  -0.0478   0.0237   1.0000
  10.500   1.3822   0.01112   0.00626  -0.0476   0.0233   1.0000
  10.600   1.3920   0.01122   0.00636  -0.0475   0.0229   1.0000
  10.700   1.4017   0.01133   0.00647  -0.0473   0.0224   1.0000
  10.800   1.4114   0.01145   0.00658  -0.0471   0.0219   1.0000
  10.900   1.4209   0.01158   0.00670  -0.0468   0.0212   1.0000
  11.000   1.4304   0.01170   0.00682  -0.0466   0.0205   1.0000
  11.100   1.4400   0.01182   0.00693  -0.0464   0.0198   1.0000
  11.200   1.4495   0.01194   0.00705  -0.0462   0.0193   1.0000
  11.300   1.4593   0.01204   0.00715  -0.0460   0.0192   1.0000
  11.400   1.4690   0.01214   0.00725  -0.0458   0.0191   1.0000
  11.500   1.4787   0.01224   0.00735  -0.0456   0.0190   1.0000
  11.600   1.4883   0.01235   0.00746  -0.0454   0.0188   1.0000
  11.700   1.4977   0.01246   0.00757  -0.0452   0.0186   1.0000
  11.800   1.5071   0.01258   0.00769  -0.0449   0.0182   1.0000
  11.900   1.5162   0.01271   0.00782  -0.0447   0.0177   1.0000
  12.000   1.5250   0.01286   0.00796  -0.0444   0.0171   1.0000
  12.100   1.5336   0.01303   0.00812  -0.0440   0.0163   1.0000
  12.200   1.5422   0.01320   0.00827  -0.0436   0.0154   1.0000
  12.300   1.5509   0.01335   0.00842  -0.0433   0.0146   1.0000
  12.400   1.5599   0.01347   0.00855  -0.0430   0.0144   1.0000
  12.500   1.5687   0.01361   0.00869  -0.0427   0.0142   1.0000
  12.600   1.5773   0.01376   0.00884  -0.0423   0.0138   1.0000
  12.700   1.5856   0.01393   0.00900  -0.0419   0.0133   1.0000
  12.800   1.5937   0.01411   0.00918  -0.0415   0.0129   1.0000
  12.900   1.6015   0.01430   0.00936  -0.0411   0.0124   1.0000
  13.000   1.6093   0.01448   0.00954  -0.0406   0.0118   1.0000
  13.100   1.6173   0.01466   0.00972  -0.0401   0.0112   1.0000
  13.200   1.6253   0.01482   0.00989  -0.0397   0.0108   1.0000
  13.300   1.6335   0.01496   0.01003  -0.0393   0.0107   1.0000
  13.400   1.6416   0.01511   0.01019  -0.0389   0.0106   1.0000
  13.500   1.6494   0.01527   0.01035  -0.0384   0.0105   1.0000
  13.600   1.6569   0.01543   0.01051  -0.0379   0.0104   1.0000
  13.700   1.6638   0.01560   0.01069  -0.0372   0.0102   1.0000
  13.800   1.6701   0.01578   0.01087  -0.0365   0.0100   1.0000
  13.900   1.6761   0.01596   0.01106  -0.0357   0.0098   1.0000
  14.000   1.6817   0.01616   0.01127  -0.0349   0.0096   1.0000
  14.100   1.6872   0.01638   0.01149  -0.0340   0.0093   1.0000
  14.200   1.6927   0.01660   0.01171  -0.0332   0.0091   1.0000
  14.300   1.6980   0.01683   0.01195  -0.0324   0.0088   1.0000
  14.400   1.7034   0.01706   0.01218  -0.0315   0.0085   1.0000
  14.500   1.7087   0.01729   0.01243  -0.0307   0.0082   1.0000
  14.600   1.7144   0.01752   0.01266  -0.0300   0.0080   1.0000
  14.700   1.7199   0.01776   0.01291  -0.0292   0.0077   1.0000
  14.800   1.7258   0.01797   0.01313  -0.0286   0.0077   1.0000
  14.900   1.7316   0.01819   0.01336  -0.0279   0.0077   1.0000
  15.000   1.7375   0.01841   0.01359  -0.0272   0.0077   1.0000
  15.100   1.7433   0.01864   0.01383  -0.0266   0.0076   1.0000
  15.200   1.7488   0.01889   0.01409  -0.0259   0.0076   1.0000
  15.300   1.7542   0.01915   0.01436  -0.0252   0.0075   1.0000
  15.400   1.7596   0.01941   0.01463  -0.0246   0.0075   1.0000
  15.500   1.7650   0.01968   0.01491  -0.0239   0.0074   1.0000
  15.600   1.7699   0.01997   0.01521  -0.0232   0.0073   1.0000
  15.700   1.7744   0.02029   0.01554  -0.0225   0.0072   1.0000
  15.800   1.7792   0.02060   0.01587  -0.0218   0.0071   1.0000
  15.900   1.7840   0.02093   0.01620  -0.0212   0.0070   1.0000
  16.000   1.7883   0.02128   0.01657  -0.0205   0.0070   1.0000
  16.100   1.7921   0.02167   0.01697  -0.0198   0.0068   1.0000
  16.200   1.7962   0.02205   0.01737  -0.0191   0.0067   1.0000
  16.300   1.8000   0.02246   0.01778  -0.0185   0.0066   1.0000
  16.400   1.8031   0.02291   0.01824  -0.0177   0.0065   1.0000
  16.500   1.8065   0.02335   0.01870  -0.0171   0.0064   1.0000
  16.600   1.8102   0.02379   0.01915  -0.0165   0.0063   1.0000
  16.700   1.8129   0.02430   0.01968  -0.0158   0.0061   1.0000
  16.800   1.8162   0.02479   0.02018  -0.0152   0.0060   1.0000
  16.900   1.8193   0.02530   0.02070  -0.0146   0.0058   1.0000
  17.000   1.8217   0.02587   0.02129  -0.0140   0.0057   1.0000
  17.100   1.8247   0.02639   0.02183  -0.0135   0.0056   1.0000
  17.200   1.8271   0.02697   0.02243  -0.0129   0.0055   1.0000
  17.300   1.8289   0.02760   0.02308  -0.0123   0.0054   1.0000
  17.400   1.8322   0.02813   0.02363  -0.0119   0.0053   1.0000
  17.500   1.8355   0.02868   0.02419  -0.0115   0.0053   1.0000
  17.600   1.8382   0.02928   0.02482  -0.0110   0.0053   1.0000
  17.700   1.8413   0.02986   0.02541  -0.0107   0.0053   1.0000
  17.800   1.8442   0.03047   0.02604  -0.0103   0.0053   1.0000
  17.900   1.8465   0.03114   0.02672  -0.0099   0.0053   1.0000
  18.000   1.8494   0.03177   0.02737  -0.0096   0.0053   1.0000
  18.100   1.8515   0.03246   0.02809  -0.0093   0.0053   1.0000
  18.200   1.8533   0.03320   0.02884  -0.0090   0.0052   1.0000
  18.300   1.8555   0.03389   0.02955  -0.0087   0.0052   1.0000
  18.400   1.8569   0.03467   0.03035  -0.0084   0.0052   1.0000
  18.500   1.8583   0.03548   0.03118  -0.0081   0.0052   1.0000
  18.600   1.8600   0.03625   0.03197  -0.0079   0.0052   1.0000
  18.700   1.8606   0.03716   0.03291  -0.0077   0.0051   1.0000
  18.800   1.8617   0.03803   0.03380  -0.0075   0.0051   1.0000
  18.900   1.8626   0.03893   0.03473  -0.0073   0.0051   1.0000
  19.000   1.8627   0.03995   0.03576  -0.0072   0.0050   1.0000
  19.100   1.8635   0.04087   0.03671  -0.0071   0.0050   1.0000
  19.200   1.8632   0.04197   0.03783  -0.0070   0.0050   1.0000
  19.300   1.8631   0.04303   0.03891  -0.0070   0.0050   1.0000
  19.400   1.8628   0.04411   0.04002  -0.0069   0.0049   1.0000
  19.500   1.8614   0.04533   0.04127  -0.0069   0.0049   1.0000
  19.600   1.8611   0.04643   0.04239  -0.0069   0.0049   1.0000
  19.700   1.8593   0.04776   0.04375  -0.0070   0.0048   1.0000
  19.800   1.8579   0.04902   0.04503  -0.0071   0.0048   1.0000
  19.900   1.8560   0.05039   0.04643  -0.0073   0.0048   1.0000
  20.000   1.8541   0.05177   0.04784  -0.0074   0.0047   1.0000
