  
       XFOIL         Version 6.99
  
 Calculated polar for: NACA 2412                                       
  
 1 1 Reynolds number fixed          Mach number fixed         
  
 xtrf =   1.000 (top)        1.000 (bottom)  
 Mach =   0.000     Re =     7.000 e 6     Ncrit =   9.000
  
   alpha    CL        CD       CDp       CM     Top_Xtr  Bot_Xtr
  ------ -------- --------- --------- -------- -------- --------
 -10.000  -0.8814   0.00824   0.00415  -0.0522   0.9494   0.0208
  -9.900  -0.8707   0.00818   0.00408  -0.0521   0.9459   0.0211
  -9.800  -0.8599   0.00813   0.00401  -0.0520   0.9421   0.0212
  -9.700  -0.8488   0.00807   0.00395  -0.0520   0.9401   0.0214
  -9.600  -0.8377   0.00801   0.00390  -0.0520   0.9386   0.0215
  -9.500  -0.8265   0.00796   0.00384  -0.0519   0.9366   0.0216
  -9.400  -0.8154   0.00791   0.00378  -0.0519   0.9340   0.0217
  -9.300  -0.8044   0.00785   0.00373  -0.0519   0.9307   0.0218
  -9.200  -0.7935   0.00781   0.00367  -0.0518   0.9270   0.0218
  -9.100  -0.7826   0.00777   0.00361  -0.0517   0.9223   0.0219
  -9.000  -0.7714   0.00772   0.00356  -0.0517   0.9192   0.0219
  -8.900  -0.7602   0.00767   0.00351  -0.0517   0.9174   0.0219
  -8.800  -0.7489   0.00762   0.00345  -0.0517   0.9149   0.0220
  -8.700  -0.7378   0.00757   0.00340  -0.0517   0.9113   0.0220
  -8.600  -0.7267   0.00753   0.00334  -0.0517   0.9069   0.0220
  -8.500  -0.7157   0.00750   0.00329  -0.0516   0.9017   0.0220
  -8.400  -0.7046   0.00745   0.00324  -0.0516   0.8976   0.0220
  -8.300  -0.6932   0.00741   0.00320  -0.0516   0.8952   0.0221
  -8.200  -0.6820   0.00736   0.00315  -0.0516   0.8918   0.0222
  -8.100  -0.6710   0.00730   0.00306  -0.0516   0.8875   0.0224
  -8.000  -0.6600   0.00725   0.00299  -0.0515   0.8817   0.0226
  -7.900  -0.6489   0.00720   0.00292  -0.0515   0.8766   0.0228
  -7.800  -0.6376   0.00714   0.00285  -0.0515   0.8739   0.0230
  -7.700  -0.6264   0.00708   0.00278  -0.0515   0.8702   0.0233
  -7.600  -0.6153   0.00703   0.00272  -0.0515   0.8652   0.0235
  -7.500  -0.6042   0.00699   0.00265  -0.0514   0.8587   0.0238
  -7.400  -0.5930   0.00694   0.00259  -0.0514   0.8544   0.0243
  -7.300  -0.5817   0.00688   0.00253  -0.0514   0.8510   0.0246
  -7.200  -0.5705   0.00684   0.00248  -0.0514   0.8462   0.0250
  -7.100  -0.5594   0.00680   0.00243  -0.0514   0.8405   0.0253
  -7.000  -0.5482   0.00676   0.00237  -0.0514   0.8342   0.0257
  -6.900  -0.5368   0.00671   0.00232  -0.0514   0.8313   0.0260
  -6.800  -0.5255   0.00666   0.00227  -0.0514   0.8270   0.0263
  -6.700  -0.5143   0.00663   0.00222  -0.0514   0.8211   0.0266
  -6.600  -0.5031   0.00660   0.00217  -0.0514   0.8146   0.0269
  -6.500  -0.4917   0.00656   0.00213  -0.0514   0.8107   0.0272
  -6.400  -0.4803   0.00652   0.00208  -0.0514   0.8068   0.0274
  -6.300  -0.4689   0.00649   0.00204  -0.0514   0.8017   0.0275
  -6.200  -0.4577   0.00647   0.00200  -0.0514   0.7956   0.0277
  -6.100  -0.4463   0.00644   0.00196  -0.0515   0.7902   0.0279
  -6.000  -0.4348   0.00641   0.00193  -0.0515   0.7870   0.0280
  -5.900  -0.4234   0.00638   0.00189  -0.0515   0.7822   0.0280
  -5.800  -0.4120   0.00637   0.00186  -0.0515   0.7764   0.0281
  -5.700  -0.4007   0.00635   0.00182  -0.0515   0.7692   0.0282
  -5.600  -0.3892   0.00632   0.00178  -0.0516   0.7660   0.0282
  -5.500  -0.3777   0.00629   0.00175  -0.0516   0.7615   0.0282
  -5.400  -0.3664   0.00627   0.00171  -0.0516   0.7559   0.0285
  -5.300  -0.3551   0.00625   0.00167  -0.0516   0.7491   0.0293
  -5.200  -0.3436   0.00621   0.00162  -0.0517   0.7454   0.0300
  -5.100  -0.3322   0.00617   0.00158  -0.0517   0.7413   0.0311
  -5.000  -0.3208   0.00614   0.00155  -0.0517   0.7361   0.0321
  -4.900  -0.3095   0.00611   0.00151  -0.0517   0.7288   0.0331
  -4.800  -0.2981   0.00608   0.00147  -0.0517   0.7237   0.0338
  -4.700  -0.2867   0.00604   0.00143  -0.0518   0.7200   0.0346
  -4.600  -0.2752   0.00601   0.00140  -0.0518   0.7149   0.0352
  -4.500  -0.2639   0.00600   0.00137  -0.0518   0.7084   0.0358
  -4.400  -0.2525   0.00597   0.00134  -0.0518   0.7028   0.0388
  -4.300  -0.2411   0.00591   0.00129  -0.0518   0.6995   0.0416
  -4.200  -0.2297   0.00587   0.00126  -0.0519   0.6942   0.0441
  -4.100  -0.2184   0.00585   0.00123  -0.0519   0.6875   0.0468
  -4.000  -0.2072   0.00579   0.00118  -0.0519   0.6809   0.0530
  -3.900  -0.1958   0.00575   0.00115  -0.0519   0.6771   0.0558
  -3.800  -0.1844   0.00573   0.00112  -0.0519   0.6710   0.0594
  -3.700  -0.1732   0.00569   0.00109  -0.0519   0.6625   0.0649
  -3.600  -0.1618   0.00565   0.00105  -0.0520   0.6578   0.0684
  -3.500  -0.1503   0.00563   0.00103  -0.0520   0.6530   0.0696
  -3.400  -0.1389   0.00563   0.00102  -0.0520   0.6454   0.0723
  -3.300  -0.1276   0.00561   0.00099  -0.0520   0.6375   0.0773
  -3.200  -0.1162   0.00557   0.00097  -0.0521   0.6327   0.0813
  -3.100  -0.1048   0.00556   0.00095  -0.0521   0.6252   0.0839
  -3.000  -0.0934   0.00556   0.00093  -0.0521   0.6162   0.0850
  -2.900  -0.0819   0.00556   0.00091  -0.0522   0.6111   0.0857
  -2.800  -0.0705   0.00556   0.00090  -0.0522   0.6028   0.0895
  -2.700  -0.0591   0.00556   0.00088  -0.0522   0.5943   0.0937
  -2.600  -0.0477   0.00553   0.00086  -0.0522   0.5894   0.0975
  -2.500  -0.0364   0.00552   0.00085  -0.0522   0.5813   0.1007
  -2.400  -0.0250   0.00553   0.00084  -0.0523   0.5727   0.1025
  -2.300  -0.0134   0.00552   0.00082  -0.0523   0.5682   0.1035
  -2.200  -0.0020   0.00553   0.00082  -0.0523   0.5609   0.1069
  -2.100   0.0093   0.00553   0.00081  -0.0524   0.5515   0.1119
  -2.000   0.0208   0.00551   0.00079  -0.0524   0.5475   0.1166
  -1.900   0.0322   0.00550   0.00078  -0.0524   0.5412   0.1203
  -1.800   0.0436   0.00551   0.00077  -0.0525   0.5323   0.1230
  -1.700   0.0551   0.00549   0.00076  -0.0525   0.5279   0.1313
  -1.600   0.0664   0.00544   0.00074  -0.0525   0.5235   0.1404
  -1.500   0.0778   0.00545   0.00074  -0.0526   0.5171   0.1453
  -1.400   0.0891   0.00542   0.00073  -0.0526   0.5091   0.1566
  -1.300   0.1006   0.00540   0.00072  -0.0526   0.5055   0.1627
  -1.200   0.1120   0.00538   0.00071  -0.0527   0.5008   0.1717
  -1.100   0.1232   0.00536   0.00070  -0.0527   0.4937   0.1829
  -1.000   0.1346   0.00536   0.00070  -0.0527   0.4858   0.1913
  -0.900   0.1460   0.00532   0.00069  -0.0527   0.4824   0.2023
  -0.800   0.1575   0.00532   0.00069  -0.0528   0.4767   0.2093
  -0.700   0.1687   0.00531   0.00069  -0.0528   0.4703   0.2193
  -0.600   0.1802   0.00530   0.00068  -0.0528   0.4641   0.2257
  -0.500   0.1916   0.00525   0.00067  -0.0529   0.4623   0.2417
  -0.400   0.2032   0.00524   0.00067  -0.0530   0.4597   0.2480
  -0.300   0.2145   0.00520   0.00067  -0.0530   0.4557   0.2647
  -0.200   0.2259   0.00522   0.00068  -0.0530   0.4499   0.2694
  -0.100   0.2374   0.00523   0.00068  -0.0531   0.4432   0.2753
   0.000   0.2490   0.00520   0.00068  -0.0531   0.4412   0.2836
   0.100   0.2605   0.00520   0.00068  -0.0532   0.4372   0.2892
   0.200   0.2720   0.00522   0.00069  -0.0532   0.4325   0.2921
   0.300   0.2834   0.00523   0.00069  -0.0533   0.4276   0.3003
   0.400   0.2948   0.00522   0.00070  -0.0533   0.4222   0.3075
   0.500   0.3064   0.00521   0.00070  -0.0534   0.4200   0.3126
   0.600   0.3179   0.00520   0.00071  -0.0534   0.4163   0.3237
   0.700   0.3292   0.00520   0.00071  -0.0534   0.4108   0.3329
   0.800   0.3405   0.00522   0.00073  -0.0534   0.4026   0.3442
   0.900   0.3519   0.00521   0.00073  -0.0535   0.3975   0.3550
   1.000   0.3633   0.00522   0.00074  -0.0535   0.3919   0.3622
   1.100   0.3744   0.00524   0.00076  -0.0535   0.3841   0.3744
   1.200   0.3858   0.00525   0.00077  -0.0536   0.3766   0.3821
   1.400   0.4081   0.00530   0.00081  -0.0536   0.3585   0.4044
   1.500   0.4194   0.00528   0.00081  -0.0536   0.3548   0.4194
   1.600   0.4303   0.00532   0.00084  -0.0536   0.3420   0.4346
   1.700   0.4415   0.00531   0.00086  -0.0536   0.3348   0.4530
   1.800   0.4527   0.00528   0.00087  -0.0536   0.3311   0.4770
   1.900   0.4635   0.00530   0.00090  -0.0536   0.3205   0.4974
   2.000   0.4747   0.00529   0.00092  -0.0536   0.3136   0.5176
   2.100   0.4857   0.00529   0.00095  -0.0536   0.3062   0.5373
   2.200   0.4965   0.00533   0.00098  -0.0535   0.2931   0.5554
   2.300   0.5074   0.00534   0.00101  -0.0535   0.2842   0.5766
   2.400   0.5184   0.00538   0.00105  -0.0534   0.2740   0.5931
   2.500   0.5297   0.00539   0.00106  -0.0535   0.2694   0.6026
   2.600   0.5403   0.00547   0.00111  -0.0534   0.2554   0.6153
   2.700   0.5514   0.00550   0.00114  -0.0534   0.2470   0.6250
   2.800   0.5621   0.00557   0.00119  -0.0533   0.2343   0.6382
   2.900   0.5734   0.00559   0.00121  -0.0533   0.2283   0.6486
   3.000   0.5842   0.00564   0.00126  -0.0533   0.2202   0.6621
   3.100   0.5953   0.00569   0.00129  -0.0533   0.2108   0.6717
   3.200   0.6064   0.00570   0.00132  -0.0533   0.2063   0.6844
   3.300   0.6173   0.00577   0.00137  -0.0532   0.1986   0.6929
   3.400   0.6284   0.00580   0.00140  -0.0532   0.1905   0.7042
   3.500   0.6396   0.00582   0.00143  -0.0532   0.1869   0.7155
   3.600   0.6503   0.00587   0.00148  -0.0532   0.1792   0.7316
   3.700   0.6613   0.00590   0.00152  -0.0531   0.1707   0.7457
   3.800   0.6724   0.00592   0.00155  -0.0531   0.1675   0.7604
   3.900   0.6831   0.00595   0.00160  -0.0530   0.1614   0.7784
   4.000   0.6939   0.00600   0.00166  -0.0530   0.1526   0.7927
   4.100   0.7049   0.00602   0.00169  -0.0529   0.1492   0.8079
   4.200   0.7155   0.00607   0.00175  -0.0528   0.1422   0.8231
   4.300   0.7261   0.00613   0.00181  -0.0527   0.1318   0.8380
   4.400   0.7368   0.00617   0.00186  -0.0527   0.1269   0.8520
   4.500   0.7469   0.00627   0.00193  -0.0525   0.1142   0.8666
   4.600   0.7576   0.00630   0.00198  -0.0523   0.1100   0.8803
   4.700   0.7677   0.00640   0.00206  -0.0522   0.1005   0.8919
   4.800   0.7782   0.00645   0.00211  -0.0520   0.0940   0.9031
   4.900   0.7888   0.00650   0.00216  -0.0519   0.0904   0.9130
   5.000   0.7992   0.00657   0.00223  -0.0517   0.0859   0.9222
   5.100   0.8095   0.00662   0.00228  -0.0515   0.0807   0.9328
   5.200   0.8202   0.00665   0.00233  -0.0514   0.0784   0.9406
   5.300   0.8302   0.00668   0.00237  -0.0511   0.0769   0.9516
   5.400   0.8407   0.00675   0.00243  -0.0510   0.0741   0.9580
   5.500   0.8505   0.00683   0.00249  -0.0507   0.0704   0.9651
   5.600   0.8606   0.00689   0.00255  -0.0504   0.0659   0.9724
   5.700   0.8714   0.00694   0.00259  -0.0503   0.0636   0.9779
   5.800   0.8828   0.00699   0.00264  -0.0504   0.0625   0.9844
   5.900   0.8941   0.00707   0.00270  -0.0504   0.0599   0.9897
   6.100   0.9200   0.00726   0.00284  -0.0513   0.0511   0.9949
   6.200   0.9336   0.00733   0.00290  -0.0519   0.0500   0.9969
   6.300   0.9468   0.00742   0.00297  -0.0524   0.0476   0.9985
   6.400   0.9596   0.00753   0.00305  -0.0528   0.0446   0.9996
   6.500   0.9715   0.00762   0.00311  -0.0530   0.0410   1.0000
   6.600   0.9817   0.00768   0.00317  -0.0528   0.0401   1.0000
   6.700   0.9919   0.00775   0.00322  -0.0527   0.0392   1.0000
   6.800   1.0021   0.00783   0.00329  -0.0525   0.0378   1.0000
   6.900   1.0123   0.00792   0.00336  -0.0523   0.0364   1.0000
   7.000   1.0226   0.00800   0.00343  -0.0521   0.0348   1.0000
   7.100   1.0330   0.00808   0.00349  -0.0520   0.0329   1.0000
   7.200   1.0435   0.00814   0.00355  -0.0519   0.0319   1.0000
   7.300   1.0542   0.00820   0.00361  -0.0518   0.0317   1.0000
   7.400   1.0648   0.00826   0.00367  -0.0517   0.0314   1.0000
   7.500   1.0755   0.00833   0.00372  -0.0516   0.0311   1.0000
   7.600   1.0860   0.00840   0.00379  -0.0516   0.0308   1.0000
   7.700   1.0966   0.00847   0.00385  -0.0515   0.0303   1.0000
   7.800   1.1071   0.00855   0.00392  -0.0514   0.0298   1.0000
   7.900   1.1175   0.00863   0.00399  -0.0513   0.0292   1.0000
   8.000   1.1280   0.00871   0.00407  -0.0511   0.0286   1.0000
   8.100   1.1385   0.00879   0.00414  -0.0510   0.0280   1.0000
   8.200   1.1490   0.00887   0.00421  -0.0509   0.0274   1.0000
   8.300   1.1595   0.00895   0.00428  -0.0508   0.0269   1.0000
   8.400   1.1699   0.00903   0.00436  -0.0507   0.0263   1.0000
   8.500   1.1804   0.00911   0.00444  -0.0506   0.0258   1.0000
   8.600   1.1909   0.00919   0.00451  -0.0505   0.0254   1.0000
   8.700   1.2013   0.00927   0.00459  -0.0504   0.0250   1.0000
   8.800   1.2119   0.00934   0.00466  -0.0504   0.0250   1.0000
   8.900   1.2224   0.00941   0.00472  -0.0503   0.0249   1.0000
   9.000   1.2330   0.00948   0.00479  -0.0502   0.0249   1.0000
   9.100   1.2435   0.00954   0.00486  -0.0501   0.0249   1.0000
   9.200   1.2540   0.00961   0.00492  -0.0501   0.0249   1.0000
   9.300   1.2645   0.00968   0.00499  -0.0500   0.0248   1.0000
   9.400   1.2750   0.00975   0.00506  -0.0499   0.0248   1.0000
   9.500   1.2855   0.00982   0.00513  -0.0498   0.0247   1.0000
   9.600   1.2959   0.00990   0.00521  -0.0497   0.0246   1.0000
   9.700   1.3063   0.00997   0.00528  -0.0496   0.0245   1.0000
   9.800   1.3167   0.01004   0.00535  -0.0495   0.0244   1.0000
   9.900   1.3270   0.01012   0.00543  -0.0494   0.0242   1.0000
  10.000   1.3373   0.01020   0.00551  -0.0493   0.0240   1.0000
  10.100   1.3475   0.01029   0.00559  -0.0492   0.0236   1.0000
  10.200   1.3576   0.01038   0.00568  -0.0490   0.0233   1.0000
  10.300   1.3677   0.01048   0.00577  -0.0489   0.0228   1.0000
  10.400   1.3776   0.01059   0.00587  -0.0487   0.0223   1.0000
  10.500   1.3874   0.01070   0.00597  -0.0485   0.0217   1.0000
  10.600   1.3972   0.01082   0.00608  -0.0484   0.0211   1.0000
  10.700   1.4070   0.01093   0.00618  -0.0482   0.0203   1.0000
  10.800   1.4168   0.01103   0.00629  -0.0480   0.0196   1.0000
  10.900   1.4267   0.01113   0.00639  -0.0478   0.0193   1.0000
  11.000   1.4367   0.01122   0.00648  -0.0477   0.0192   1.0000
  11.100   1.4467   0.01131   0.00657  -0.0475   0.0191   1.0000
  11.200   1.4565   0.01141   0.00666  -0.0474   0.0190   1.0000
  11.300   1.4664   0.01151   0.00676  -0.0472   0.0188   1.0000
  11.400   1.4761   0.01161   0.00686  -0.0470   0.0186   1.0000
  11.500   1.4857   0.01172   0.00697  -0.0468   0.0182   1.0000
  11.600   1.4950   0.01185   0.00709  -0.0466   0.0176   1.0000
  11.700   1.5041   0.01200   0.00723  -0.0463   0.0169   1.0000
  11.800   1.5130   0.01215   0.00737  -0.0460   0.0161   1.0000
  11.900   1.5220   0.01230   0.00751  -0.0457   0.0152   1.0000
  12.000   1.5313   0.01243   0.00763  -0.0454   0.0146   1.0000
  12.100   1.5406   0.01255   0.00775  -0.0452   0.0143   1.0000
  12.200   1.5497   0.01268   0.00789  -0.0449   0.0140   1.0000
  12.300   1.5586   0.01282   0.00803  -0.0446   0.0136   1.0000
  12.400   1.5673   0.01298   0.00818  -0.0442   0.0131   1.0000
  12.500   1.5756   0.01316   0.00835  -0.0438   0.0126   1.0000
  12.600   1.5840   0.01333   0.00851  -0.0435   0.0120   1.0000
  12.700   1.5925   0.01349   0.00867  -0.0431   0.0114   1.0000
  12.800   1.6012   0.01363   0.00881  -0.0427   0.0109   1.0000
  12.900   1.6100   0.01376   0.00895  -0.0424   0.0107   1.0000
  13.000   1.6187   0.01390   0.00908  -0.0421   0.0106   1.0000
  13.100   1.6272   0.01404   0.00923  -0.0417   0.0105   1.0000
  13.200   1.6356   0.01419   0.00937  -0.0414   0.0103   1.0000
  13.300   1.6439   0.01434   0.00953  -0.0410   0.0101   1.0000
  13.400   1.6519   0.01451   0.00970  -0.0405   0.0099   1.0000
  13.500   1.6597   0.01468   0.00987  -0.0401   0.0097   1.0000
  13.600   1.6672   0.01486   0.01006  -0.0396   0.0094   1.0000
  13.700   1.6744   0.01506   0.01025  -0.0390   0.0091   1.0000
  13.800   1.6814   0.01525   0.01044  -0.0384   0.0088   1.0000
  13.900   1.6882   0.01543   0.01063  -0.0377   0.0085   1.0000
  14.000   1.6944   0.01561   0.01081  -0.0370   0.0082   1.0000
  14.100   1.7005   0.01579   0.01099  -0.0362   0.0079   1.0000
  14.200   1.7064   0.01596   0.01118  -0.0354   0.0077   1.0000
  14.300   1.7128   0.01613   0.01135  -0.0347   0.0077   1.0000
  14.400   1.7191   0.01629   0.01152  -0.0340   0.0077   1.0000
  14.500   1.7256   0.01647   0.01171  -0.0333   0.0077   1.0000
  14.600   1.7317   0.01665   0.01189  -0.0326   0.0076   1.0000
  14.700   1.7376   0.01684   0.01209  -0.0319   0.0076   1.0000
  14.800   1.7436   0.01704   0.01230  -0.0311   0.0075   1.0000
  14.900   1.7496   0.01724   0.01251  -0.0305   0.0074   1.0000
  15.000   1.7554   0.01746   0.01274  -0.0298   0.0074   1.0000
  15.100   1.7608   0.01769   0.01298  -0.0290   0.0073   1.0000
  15.200   1.7660   0.01794   0.01323  -0.0282   0.0071   1.0000
  15.300   1.7713   0.01819   0.01349  -0.0275   0.0070   1.0000
  15.400   1.7765   0.01845   0.01376  -0.0268   0.0069   1.0000
  15.500   1.7812   0.01874   0.01405  -0.0260   0.0068   1.0000
  15.600   1.7858   0.01904   0.01436  -0.0252   0.0067   1.0000
  15.700   1.7905   0.01935   0.01468  -0.0245   0.0065   1.0000
  15.800   1.7951   0.01965   0.01499  -0.0237   0.0064   1.0000
  15.900   1.7991   0.01999   0.01533  -0.0229   0.0063   1.0000
  16.000   1.8035   0.02032   0.01568  -0.0222   0.0061   1.0000
  16.100   1.8078   0.02067   0.01604  -0.0215   0.0060   1.0000
  16.200   1.8121   0.02103   0.01641  -0.0208   0.0058   1.0000
  16.300   1.8160   0.02141   0.01680  -0.0201   0.0057   1.0000
  16.400   1.8200   0.02179   0.01719  -0.0194   0.0055   1.0000
  16.500   1.8241   0.02217   0.01758  -0.0188   0.0054   1.0000
  16.600   1.8278   0.02257   0.01800  -0.0181   0.0053   1.0000
  16.700   1.8321   0.02294   0.01839  -0.0175   0.0053   1.0000
  16.800   1.8367   0.02331   0.01877  -0.0170   0.0053   1.0000
  16.900   1.8410   0.02371   0.01918  -0.0164   0.0053   1.0000
  17.000   1.8449   0.02413   0.01962  -0.0159   0.0053   1.0000
  17.100   1.8490   0.02455   0.02005  -0.0153   0.0053   1.0000
  17.200   1.8533   0.02498   0.02049  -0.0148   0.0053   1.0000
  17.300   1.8568   0.02545   0.02098  -0.0143   0.0053   1.0000
  17.400   1.8603   0.02593   0.02147  -0.0138   0.0052   1.0000
  17.500   1.8640   0.02640   0.02195  -0.0133   0.0052   1.0000
  17.600   1.8670   0.02693   0.02250  -0.0128   0.0052   1.0000
  17.700   1.8699   0.02748   0.02307  -0.0123   0.0052   1.0000
  17.800   1.8733   0.02800   0.02361  -0.0119   0.0051   1.0000
  17.900   1.8757   0.02861   0.02423  -0.0114   0.0051   1.0000
  18.000   1.8782   0.02924   0.02487  -0.0110   0.0051   1.0000
  18.100   1.8811   0.02983   0.02548  -0.0106   0.0050   1.0000
  18.200   1.8831   0.03051   0.02618  -0.0102   0.0050   1.0000
  18.300   1.8849   0.03122   0.02690  -0.0098   0.0049   1.0000
  18.400   1.8871   0.03190   0.02760  -0.0095   0.0049   1.0000
  18.500   1.8882   0.03269   0.02841  -0.0091   0.0049   1.0000
  18.600   1.8897   0.03344   0.02918  -0.0088   0.0048   1.0000
  18.700   1.8908   0.03423   0.02999  -0.0085   0.0048   1.0000
  18.800   1.8906   0.03517   0.03096  -0.0082   0.0047   1.0000
  18.900   1.8921   0.03596   0.03177  -0.0079   0.0047   1.0000
  19.000   1.8919   0.03694   0.03277  -0.0077   0.0046   1.0000
  19.100   1.8925   0.03786   0.03370  -0.0075   0.0046   1.0000
  19.200   1.8926   0.03884   0.03471  -0.0073   0.0045   1.0000
  19.300   1.8919   0.03992   0.03581  -0.0072   0.0045   1.0000
  19.400   1.8922   0.04091   0.03682  -0.0070   0.0045   1.0000
  19.500   1.8907   0.04213   0.03806  -0.0070   0.0044   1.0000
  19.600   1.8905   0.04320   0.03915  -0.0069   0.0044   1.0000
  19.700   1.8890   0.04441   0.04038  -0.0069   0.0043   1.0000
  19.800   1.8869   0.04569   0.04170  -0.0069   0.0043   1.0000
  19.900   1.8860   0.04688   0.04291  -0.0069   0.0042   1.0000
  20.000   1.8834   0.04829   0.04435  -0.0070   0.0042   1.0000
